@<TRIPOS>MOLECULE
3kv2_ligand_019
    24    23
SMALL
GAST_HUCK
****
This file was generated by PARSER (from files_GN.cpp)

@<TRIPOS>ATOM
      1 N          25.0311  -10.8802   -5.7049 N.4         1 NNH       0.2327
      2 CA         25.7887   -9.6237   -5.5534 C.3         1 NNH       0.0302
      3 C          26.8345   -9.5096   -6.5958 C.2         1 NNH       0.0845
      4 O          27.4383  -10.6032   -7.1109 O.co2       1 NNH      -0.5643
      5 CB         26.3384   -9.4712   -4.1046 C.3         1 NNH       0.0223
      6 CG         27.4458  -10.4926   -3.6970 C.3         1 NNH       0.0355
      7 ND         27.3881  -10.8952   -2.3222 N.pl3       1 NNH      -0.2909
      8 CE         26.4231  -11.6502   -1.7373 C.2         1 NNH       0.1842
      9 NH1        26.4498  -11.9352   -0.4177 N.2         1 NNH      -0.2131
     10 NH2        25.4043  -12.1676   -2.4444 N.pl3       1 NNH      -0.3050
     11 OH1        27.3503  -11.5510    0.4474 O.3         1 NNH      -0.3179
     12 OXT        27.3455   -8.2983   -6.9048 O.co2       1 NNH      -0.5643
     13 H1         24.2738  -10.9107   -5.0158 H           1 NNH       0.2010
     14 H2         25.6475  -11.6843   -5.5638 H           1 NNH       0.2010
     15 H3         24.6278  -10.9323   -6.6440 H           1 NNH       0.2010
     16 H4         25.0669   -8.8211   -5.7315 H           1 NNH       0.1025
     17 H5         25.4853   -9.5474   -3.4254 H           1 NNH       0.0358
     18 H6         26.7335   -8.4568   -3.9827 H           1 NNH       0.0358
     19 H7         28.4182  -10.0235   -3.8632 H           1 NNH       0.0520
     20 H8         27.4164  -11.3784   -4.3302 H           1 NNH       0.0520
     21 H9         28.1490  -10.6496   -1.7683 H           1 NNH       0.1821
     22 H10        24.7515  -12.7411   -2.0165 H           1 NNH       0.1785
     23 H11        25.3416  -12.0098   -3.3959 H           1 NNH       0.1785
     24 H12        28.1960  -11.5217   -0.0418 H           1 NNH       0.2457
@<TRIPOS>BOND
     1     1     2   1
     2     2     3   1
     3     2     5   1
     4     3     4  ar
     5     3    12  ar
     6     5     6   1
     7     6     7   1
     8     7     8   1
     9     8     9   2
    10     8    10   1
    11     9    11   1
    12     1    13   1
    13     1    14   1
    14     1    15   1
    15     2    16   1
    16     5    17   1
    17     5    18   1
    18     6    19   1
    19     6    20   1
    20     7    21   1
    21    10    22   1
    22    10    23   1
    23    11    24   1
@<TRIPOS>SUBSTRUCTURE
     1  NNH      2

