@<TRIPOS>MOLECULE
3kv2_ligand_001
    24    23
SMALL
GAST_HUCK
****
This file was generated by PARSER (from files_GN.cpp)

@<TRIPOS>ATOM
      1 N          26.3627   -7.4302   -4.8842 N.4         1 NNH       0.2327
      2 CA         25.0911   -8.1746   -4.8413 C.3         1 NNH       0.0302
      3 C          23.9637   -7.2848   -4.4591 C.2         1 NNH       0.0845
      4 O          24.1324   -5.9590   -4.2501 O.co2       1 NNH      -0.5643
      5 CB         25.1936   -9.3784   -3.8594 C.3         1 NNH       0.0223
      6 CG         26.6047  -10.0171   -3.7230 C.3         1 NNH       0.0355
      7 ND         26.8143  -10.6191   -2.4418 N.pl3       1 NNH      -0.2909
      8 CE         26.0128  -11.5326   -1.8406 C.2         1 NNH       0.1842
      9 NH1        26.2688  -11.9625   -0.5894 N.2         1 NNH      -0.2131
     10 NH2        24.9274  -12.0576   -2.4379 N.pl3       1 NNH      -0.3050
     11 OH1        27.2684  -11.6129    0.1789 O.3         1 NNH      -0.3179
     12 OXT        22.7463   -7.8140   -4.1930 O.co2       1 NNH      -0.5643
     13 H1         27.0488   -7.9382   -5.4494 H           1 NNH       0.2010
     14 H2         26.7199   -7.3386   -3.9321 H           1 NNH       0.2010
     15 H3         26.2179   -6.5023   -5.2913 H           1 NNH       0.2010
     16 H4         24.8971   -8.5474   -5.8543 H           1 NNH       0.1025
     17 H5         24.4900  -10.1436   -4.2003 H           1 NNH       0.0358
     18 H6         24.8574   -9.0509   -2.8699 H           1 NNH       0.0358
     19 H7         27.3627   -9.2352   -3.8139 H           1 NNH       0.0520
     20 H8         26.7691  -10.7510   -4.5142 H           1 NNH       0.0520
     21 H9         27.6033  -10.3246   -1.9512 H           1 NNH       0.1821
     22 H10        24.3815  -12.7043   -1.9618 H           1 NNH       0.1785
     23 H11        24.7028  -11.8115   -3.3522 H           1 NNH       0.1785
     24 H12        28.0375  -11.4283   -0.4026 H           1 NNH       0.2457
@<TRIPOS>BOND
     1     1     2   1
     2     2     3   1
     3     2     5   1
     4     3     4  ar
     5     3    12  ar
     6     5     6   1
     7     6     7   1
     8     7     8   1
     9     8     9   2
    10     8    10   1
    11     9    11   1
    12     1    13   1
    13     1    14   1
    14     1    15   1
    15     2    16   1
    16     5    17   1
    17     5    18   1
    18     6    19   1
    19     6    20   1
    20     7    21   1
    21    10    22   1
    22    10    23   1
    23    11    24   1
@<TRIPOS>SUBSTRUCTURE
     1  NNH      2

