@<TRIPOS>MOLECULE
3kv2_ligand_007
    24    23
SMALL
GAST_HUCK
****
This file was generated by PARSER (from files_GN.cpp)

@<TRIPOS>ATOM
      1 N          23.9420  -11.5510   -1.6347 N.4         1 NNH       0.2327
      2 CA         24.5568  -11.3568   -2.9594 C.3         1 NNH       0.0302
      3 C          25.8560  -12.0513   -2.9801 C.2         1 NNH       0.0845
      4 O          26.1614  -12.9062   -3.9826 O.co2       1 NNH      -0.5643
      5 CB         24.6507   -9.8441   -3.3096 C.3         1 NNH       0.0223
      6 CG         25.4775   -9.4736   -4.5798 C.3         1 NNH       0.0355
      7 ND         26.7816   -9.0046   -4.2257 N.pl3       1 NNH      -0.2909
      8 CE         27.9878   -9.5013   -4.5787 C.2         1 NNH       0.1842
      9 NH1        28.1611  -10.6024   -5.3398 N.2         1 NNH      -0.2131
     10 NH2        29.0496   -8.8419   -4.0829 N.pl3       1 NNH      -0.3050
     11 OH1        29.3411  -11.0618   -5.6691 O.3         1 NNH      -0.3179
     12 OXT        26.7971  -11.7757   -2.0520 O.co2       1 NNH      -0.5643
     13 H1         23.0159  -11.1239   -1.6225 H           1 NNH       0.2010
     14 H2         24.5087  -11.1297   -0.8917 H           1 NNH       0.2010
     15 H3         23.8482  -12.5523   -1.4594 H           1 NNH       0.2010
     16 H4         23.9018  -11.8332   -3.6948 H           1 NNH       0.1025
     17 H5         25.0411   -9.3002   -2.4451 H           1 NNH       0.0358
     18 H6         23.6257   -9.4921   -3.4582 H           1 NNH       0.0358
     19 H7         24.9816   -8.6427   -5.0862 H           1 NNH       0.0520
     20 H8         25.5059  -10.3098   -5.2820 H           1 NNH       0.0520
     21 H9         26.8052   -8.2293   -3.6414 H           1 NNH       0.1821
     22 H10        29.9535   -9.1532   -4.2520 H           1 NNH       0.1785
     23 H11        28.9053   -8.0620   -3.5251 H           1 NNH       0.1785
     24 H12        29.3911  -11.9573   -5.2709 H           1 NNH       0.2457
@<TRIPOS>BOND
     1     1     2   1
     2     2     3   1
     3     2     5   1
     4     3     4  ar
     5     3    12  ar
     6     5     6   1
     7     6     7   1
     8     7     8   1
     9     8     9   2
    10     8    10   1
    11     9    11   1
    12     1    13   1
    13     1    14   1
    14     1    15   1
    15     2    16   1
    16     5    17   1
    17     5    18   1
    18     6    19   1
    19     6    20   1
    20     7    21   1
    21    10    22   1
    22    10    23   1
    23    11    24   1
@<TRIPOS>SUBSTRUCTURE
     1  NNH      2

