@<TRIPOS>MOLECULE
3kwa_ligand_023
    44    43
SMALL
GAST_HUCK
****
This file was generated by PARSER (from files_GN.cpp)

@<TRIPOS>ATOM
      1 N1          1.3573    3.1596    4.1779 N.4         1 SPM       0.2187
      2 C2          0.8033    4.4332    4.6712 C.3         1 SPM      -0.0305
      3 C3          0.9985    4.5737    6.2086 C.3         1 SPM       0.0275
      4 C4         -0.0848    3.8389    7.0679 C.3         1 SPM      -0.0288
      5 N5         -1.3210    4.6218    7.3709 N.4         1 SPM       0.2271
      6 C6         -1.9165    5.4158    6.2633 C.3         1 SPM      -0.0335
      7 C7         -3.0312    6.3998    6.7229 C.3         1 SPM      -0.0078
      8 C8         -4.4078    5.7281    6.9736 C.3         1 SPM      -0.0078
      9 C9         -5.5573    6.7591    7.1528 C.3         1 SPM      -0.0335
     10 N10        -6.8593    6.0570    7.1248 N.4         1 SPM       0.2271
     11 C11        -7.8913    6.4641    8.1075 C.3         1 SPM      -0.0288
     12 C12        -8.3974    7.9242    7.9525 C.3         1 SPM       0.0275
     13 C13        -9.8169    8.1134    8.5439 C.3         1 SPM      -0.0305
     14 N14       -10.3497    9.4527    8.2696 N.4         1 SPM       0.2187
     15 H1          1.1294    3.0581    3.1765 H           1 SPM       0.1994
     16 H2          0.9582    2.3697    4.7076 H           1 SPM       0.1994
     17 H3          2.3778    3.1624    4.3043 H           1 SPM       0.1994
     18 H4         -0.2647    4.4706    4.4027 H           1 SPM       0.0815
     19 H5          1.3319    5.2485    4.1605 H           1 SPM       0.0815
     20 H6          1.0033    5.6336    6.4739 H           1 SPM       0.0369
     21 H7          1.9855    4.1756    6.4717 H           1 SPM       0.0369
     22 H8          0.3615    3.6001    8.0418 H           1 SPM       0.0816
     23 H9         -0.3654    2.8791    6.5998 H           1 SPM       0.0816
     24 H10        -1.1056    5.2689    8.1423 H           1 SPM       0.2013
     25 H11        -2.0298    3.9577    7.7033 H           1 SPM       0.2013
     26 H12        -2.3146    4.7410    5.4930 H           1 SPM       0.0814
     27 H13        -1.1234    6.0311    5.8160 H           1 SPM       0.0814
     28 H14        -3.1568    7.1451    5.9305 H           1 SPM       0.0319
     29 H15        -2.6987    6.9224    7.6260 H           1 SPM       0.0319
     30 H16        -4.3302    5.1099    7.8773 H           1 SPM       0.0319
     31 H17        -4.6304    5.0783    6.1190 H           1 SPM       0.0319
     32 H18        -5.5368    7.4802    6.3322 H           1 SPM       0.0814
     33 H19        -5.4111    7.2978    8.0930 H           1 SPM       0.0814
     34 H20        -6.6664    5.0688    7.2845 H           1 SPM       0.2013
     35 H21        -7.2521    6.1536    6.1801 H           1 SPM       0.2013
     36 H22        -7.5145    6.3033    9.1241 H           1 SPM       0.0816
     37 H23        -8.7303    5.7800    7.9576 H           1 SPM       0.0816
     38 H24        -8.4027    8.1884    6.8907 H           1 SPM       0.0369
     39 H25        -7.6960    8.5939    8.4586 H           1 SPM       0.0369
     40 H26        -9.7820    7.9571    9.6268 H           1 SPM       0.0815
     41 H27       -10.4952    7.3761    8.1015 H           1 SPM       0.0815
     42 H28       -11.2843    9.5180    8.6788 H           1 SPM       0.1994
     43 H29       -10.4080    9.5959    7.2555 H           1 SPM       0.1994
     44 H30        -9.7387   10.1630    8.6870 H           1 SPM       0.1994
@<TRIPOS>BOND
     1     1     2   1
     2     2     3   1
     3     3     4   1
     4     4     5   1
     5     5     6   1
     6     6     7   1
     7     7     8   1
     8     8     9   1
     9     9    10   1
    10    10    11   1
    11    11    12   1
    12    12    13   1
    13    13    14   1
    14     1    15   1
    15     1    16   1
    16     1    17   1
    17     2    18   1
    18     2    19   1
    19     3    20   1
    20     3    21   1
    21     4    22   1
    22     4    23   1
    23     5    24   1
    24     5    25   1
    25     6    26   1
    26     6    27   1
    27     7    28   1
    28     7    29   1
    29     8    30   1
    30     8    31   1
    31     9    32   1
    32     9    33   1
    33    10    34   1
    34    10    35   1
    35    11    36   1
    36    11    37   1
    37    12    38   1
    38    12    39   1
    39    13    40   1
    40    13    41   1
    41    14    42   1
    42    14    43   1
    43    14    44   1
@<TRIPOS>SUBSTRUCTURE
     1  SPM      2

