@<TRIPOS>MOLECULE
3kwa_ligand_004
    44    43
SMALL
GAST_HUCK
****
This file was generated by PARSER (from files_GN.cpp)

@<TRIPOS>ATOM
      1 N1         -6.0793    5.7771    6.4674 N.4         1 SPM       0.2187
      2 C2         -5.9731    7.1378    7.0109 C.3         1 SPM      -0.0305
      3 C3         -4.6517    7.3996    7.7772 C.3         1 SPM       0.0275
      4 C4         -4.4463    6.5941    9.0885 C.3         1 SPM      -0.0288
      5 N5         -4.1016    5.1847    8.8041 N.4         1 SPM       0.2271
      6 C6         -3.4313    4.4132    9.8788 C.3         1 SPM      -0.0335
      7 C7         -4.3960    3.9122   10.9818 C.3         1 SPM      -0.0078
      8 C8         -3.7140    2.8915   11.9518 C.3         1 SPM      -0.0078
      9 C9         -4.4447    1.5291   12.0825 C.3         1 SPM      -0.0335
     10 N10        -3.4908    0.4619   12.4635 N.4         1 SPM       0.2271
     11 C11        -4.0776   -0.8786   12.7015 C.3         1 SPM      -0.0288
     12 C12        -3.8001   -1.8813   11.5451 C.3         1 SPM       0.0275
     13 C13        -4.8541   -3.0239   11.4450 C.3         1 SPM      -0.0305
     14 N14        -4.2857   -4.3249   11.0677 N.4         1 SPM       0.2187
     15 H1         -6.8302    5.7543    5.7738 H           1 SPM       0.1994
     16 H2         -6.2973    5.1177    7.2167 H           1 SPM       0.1994
     17 H3         -5.1981    5.5123    6.0165 H           1 SPM       0.1994
     18 H4         -6.8291    7.3243    7.6610 H           1 SPM       0.0815
     19 H5         -6.0307    7.8321    6.1696 H           1 SPM       0.0815
     20 H6         -4.6260    8.4642    8.0286 H           1 SPM       0.0369
     21 H7         -3.8080    7.2076    7.1036 H           1 SPM       0.0369
     22 H8         -5.3527    6.6300    9.6956 H           1 SPM       0.0816
     23 H9         -3.6385    7.0715    9.6522 H           1 SPM       0.0816
     24 H10        -3.4736    5.1747    7.9965 H           1 SPM       0.2013
     25 H11        -4.9559    4.6884    8.5467 H           1 SPM       0.2013
     26 H12        -2.6221    5.0015   10.3240 H           1 SPM       0.0814
     27 H13        -2.9788    3.5417    9.3935 H           1 SPM       0.0814
     28 H14        -5.2606    3.4606   10.4910 H           1 SPM       0.0319
     29 H15        -4.7633    4.7691   11.5484 H           1 SPM       0.0319
     30 H16        -3.6423    3.3297   12.9503 H           1 SPM       0.0319
     31 H17        -2.6812    2.7069   11.6383 H           1 SPM       0.0319
     32 H18        -4.9024    1.2282   11.1337 H           1 SPM       0.0814
     33 H19        -5.2395    1.6215   12.8364 H           1 SPM       0.0814
     34 H20        -3.0078    0.7653   13.3131 H           1 SPM       0.2013
     35 H21        -2.8037    0.4042   11.7054 H           1 SPM       0.2013
     36 H22        -5.1456   -0.7908   12.9010 H           1 SPM       0.0816
     37 H23        -3.6289   -1.2878   13.6072 H           1 SPM       0.0816
     38 H24        -2.7997   -2.2974   11.6866 H           1 SPM       0.0369
     39 H25        -3.7845   -1.3406   10.5928 H           1 SPM       0.0369
     40 H26        -5.6129   -2.7525   10.7064 H           1 SPM       0.0815
     41 H27        -5.3829   -3.1762   12.3881 H           1 SPM       0.0815
     42 H28        -5.0592   -4.9631   10.8792 H           1 SPM       0.1994
     43 H29        -3.7290   -4.6960   11.8460 H           1 SPM       0.1994
     44 H30        -3.6990   -4.2396   10.2342 H           1 SPM       0.1994
@<TRIPOS>BOND
     1     1     2   1
     2     2     3   1
     3     3     4   1
     4     4     5   1
     5     5     6   1
     6     6     7   1
     7     7     8   1
     8     8     9   1
     9     9    10   1
    10    10    11   1
    11    11    12   1
    12    12    13   1
    13    13    14   1
    14     1    15   1
    15     1    16   1
    16     1    17   1
    17     2    18   1
    18     2    19   1
    19     3    20   1
    20     3    21   1
    21     4    22   1
    22     4    23   1
    23     5    24   1
    24     5    25   1
    25     6    26   1
    26     6    27   1
    27     7    28   1
    28     7    29   1
    29     8    30   1
    30     8    31   1
    31     9    32   1
    32     9    33   1
    33    10    34   1
    34    10    35   1
    35    11    36   1
    36    11    37   1
    37    12    38   1
    38    12    39   1
    39    13    40   1
    40    13    41   1
    41    14    42   1
    42    14    43   1
    43    14    44   1
@<TRIPOS>SUBSTRUCTURE
     1  SPM      2

