@<TRIPOS>MOLECULE
3kwa_ligand_036
    44    43
SMALL
GAST_HUCK
****
This file was generated by PARSER (from files_GN.cpp)

@<TRIPOS>ATOM
      1 N1         -6.4341    6.0121    6.8260 N.4         1 SPM       0.2187
      2 C2         -5.0544    5.5689    6.5699 C.3         1 SPM      -0.0305
      3 C3         -4.1524    6.7001    6.0043 C.3         1 SPM       0.0275
      4 C4         -4.0126    7.9500    6.9186 C.3         1 SPM      -0.0288
      5 N5         -3.8828    7.6760    8.3734 N.4         1 SPM       0.2271
      6 C6         -2.6487    6.9886    8.8303 C.3         1 SPM      -0.0335
      7 C7         -2.7627    6.5491   10.3167 C.3         1 SPM      -0.0078
      8 C8         -3.7052    5.3301   10.5642 C.3         1 SPM      -0.0078
      9 C9         -3.0449    3.9612   10.2366 C.3         1 SPM      -0.0335
     10 N10        -3.9868    2.8189   10.2608 N.4         1 SPM       0.2271
     11 C11        -4.5763    2.3848   11.5490 C.3         1 SPM      -0.0288
     12 C12        -3.5556    1.7775   12.5555 C.3         1 SPM       0.0275
     13 C13        -4.1649    0.7223   13.5142 C.3         1 SPM      -0.0305
     14 N14        -4.3982   -0.5622   12.8395 N.4         1 SPM       0.2187
     15 H1         -6.9134    5.2810    7.3593 H           1 SPM       0.1994
     16 H2         -6.9225    6.1594    5.9385 H           1 SPM       0.1994
     17 H3         -6.4328    6.8820    7.3719 H           1 SPM       0.1994
     18 H4         -5.0897    4.7365    5.8538 H           1 SPM       0.0815
     19 H5         -4.6199    5.2013    7.5093 H           1 SPM       0.0815
     20 H6         -4.5492    7.0221    5.0394 H           1 SPM       0.0369
     21 H7         -3.1545    6.2814    5.8315 H           1 SPM       0.0369
     22 H8         -4.9117    8.5598    6.7992 H           1 SPM       0.0816
     23 H9         -3.1629    8.5524    6.5883 H           1 SPM       0.0816
     24 H10        -4.6912    7.1208    8.6640 H           1 SPM       0.2013
     25 H11        -3.9349    8.5778    8.8626 H           1 SPM       0.2013
     26 H12        -1.8157    7.6918    8.7419 H           1 SPM       0.0814
     27 H13        -2.4489    6.1181    8.1983 H           1 SPM       0.0814
     28 H14        -3.1242    7.4008   10.9047 H           1 SPM       0.0319
     29 H15        -1.7614    6.2981   10.6868 H           1 SPM       0.0319
     30 H16        -4.6188    5.4393    9.9713 H           1 SPM       0.0319
     31 H17        -3.9951    5.3178   11.6215 H           1 SPM       0.0319
     32 H18        -2.2160    3.7756   10.9250 H           1 SPM       0.0814
     33 H19        -2.6360    3.9918    9.2244 H           1 SPM       0.0814
     34 H20        -3.4731    2.0196    9.8839 H           1 SPM       0.2013
     35 H21        -4.7592    3.0447    9.6212 H           1 SPM       0.2013
     36 H22        -5.3224    1.6291   11.2929 H           1 SPM       0.0816
     37 H23        -5.1046    3.2223   12.0124 H           1 SPM       0.0816
     38 H24        -3.1440    2.5975   13.1529 H           1 SPM       0.0369
     39 H25        -2.7271    1.3157   12.0082 H           1 SPM       0.0369
     40 H26        -5.1061    1.0856   13.9330 H           1 SPM       0.0815
     41 H27        -3.4753    0.5444   14.3386 H           1 SPM       0.0815
     42 H28        -4.8128   -1.2221   13.4972 H           1 SPM       0.1994
     43 H29        -3.5097   -0.9374   12.5032 H           1 SPM       0.1994
     44 H30        -5.0290   -0.4309   12.0476 H           1 SPM       0.1994
@<TRIPOS>BOND
     1     1     2   1
     2     2     3   1
     3     3     4   1
     4     4     5   1
     5     5     6   1
     6     6     7   1
     7     7     8   1
     8     8     9   1
     9     9    10   1
    10    10    11   1
    11    11    12   1
    12    12    13   1
    13    13    14   1
    14     1    15   1
    15     1    16   1
    16     1    17   1
    17     2    18   1
    18     2    19   1
    19     3    20   1
    20     3    21   1
    21     4    22   1
    22     4    23   1
    23     5    24   1
    24     5    25   1
    25     6    26   1
    26     6    27   1
    27     7    28   1
    28     7    29   1
    29     8    30   1
    30     8    31   1
    31     9    32   1
    32     9    33   1
    33    10    34   1
    34    10    35   1
    35    11    36   1
    36    11    37   1
    37    12    38   1
    38    12    39   1
    39    13    40   1
    40    13    41   1
    41    14    42   1
    42    14    43   1
    43    14    44   1
@<TRIPOS>SUBSTRUCTURE
     1  SPM      2

