@<TRIPOS>MOLECULE
3kwa_ligand_006
    44    43
SMALL
GAST_HUCK
****
This file was generated by PARSER (from files_GN.cpp)

@<TRIPOS>ATOM
      1 N1         -4.1688    0.7398   15.6173 N.4         1 SPM       0.2187
      2 C2         -4.5249    1.8723   16.4853 C.3         1 SPM      -0.0305
      3 C3         -4.9400    3.1450   15.7083 C.3         1 SPM       0.0275
      4 C4         -3.7648    3.9493   15.0852 C.3         1 SPM      -0.0288
      5 N5         -3.3612    3.5379   13.7186 N.4         1 SPM       0.2271
      6 C6         -4.4670    3.3482   12.7373 C.3         1 SPM      -0.0335
      7 C7         -3.9987    3.4669   11.2623 C.3         1 SPM      -0.0078
      8 C8         -3.4979    4.8768   10.8323 C.3         1 SPM      -0.0078
      9 C9         -4.5188    6.0443   10.9727 C.3         1 SPM      -0.0335
     10 N10        -5.3289    6.3163    9.7556 N.4         1 SPM       0.2271
     11 C11        -4.6257    6.9957    8.6258 C.3         1 SPM      -0.0288
     12 C12        -4.2159    5.9933    7.5157 C.3         1 SPM       0.0275
     13 C13        -5.2535    5.7987    6.3855 C.3         1 SPM      -0.0305
     14 N14        -6.6388    6.0203    6.8122 N.4         1 SPM       0.2187
     15 H1         -4.0929   -0.1112   16.1901 H           1 SPM       0.1994
     16 H2         -3.2671    0.9252   15.1644 H           1 SPM       0.1994
     17 H3         -4.8977    0.6181   14.9062 H           1 SPM       0.1994
     18 H4         -3.6792    2.1037   17.1407 H           1 SPM       0.0815
     19 H5         -5.3673    1.5554   17.1124 H           1 SPM       0.0815
     20 H6         -5.4483    3.8052   16.4182 H           1 SPM       0.0369
     21 H7         -5.6651    2.8772   14.9377 H           1 SPM       0.0369
     22 H8         -2.8878    3.8645   15.7296 H           1 SPM       0.0816
     23 H9         -4.0376    5.0097   15.0603 H           1 SPM       0.0816
     24 H10        -2.7960    2.6836   13.7726 H           1 SPM       0.2013
     25 H11        -2.7514    4.2773   13.3664 H           1 SPM       0.2013
     26 H12        -5.2814    4.0627   12.9026 H           1 SPM       0.0814
     27 H13        -4.8799    2.3476   12.8884 H           1 SPM       0.0814
     28 H14        -4.8235    3.1689   10.6064 H           1 SPM       0.0319
     29 H15        -3.1834    2.7511   11.1093 H           1 SPM       0.0319
     30 H16        -3.1713    4.8192    9.7867 H           1 SPM       0.0319
     31 H17        -2.6080    5.1347   11.4158 H           1 SPM       0.0319
     32 H18        -3.9760    6.9558   11.2475 H           1 SPM       0.0814
     33 H19        -5.2022    5.8356   11.7946 H           1 SPM       0.0814
     34 H20        -6.1015    6.9234   10.0431 H           1 SPM       0.2013
     35 H21        -5.7329    5.4355    9.4206 H           1 SPM       0.2013
     36 H22        -3.7294    7.5231    8.9719 H           1 SPM       0.0816
     37 H23        -5.2910    7.7627    8.2158 H           1 SPM       0.0816
     38 H24        -3.9867    5.0233    7.9639 H           1 SPM       0.0369
     39 H25        -3.2925    6.3482    7.0439 H           1 SPM       0.0369
     40 H26        -5.1729    4.7811    6.0001 H           1 SPM       0.0815
     41 H27        -5.0403    6.4906    5.5672 H           1 SPM       0.0815
     42 H28        -7.2631    5.8018    6.0329 H           1 SPM       0.1994
     43 H29        -6.7607    7.0025    7.0776 H           1 SPM       0.1994
     44 H30        -6.8608    5.4236    7.6075 H           1 SPM       0.1994
@<TRIPOS>BOND
     1     1     2   1
     2     2     3   1
     3     3     4   1
     4     4     5   1
     5     5     6   1
     6     6     7   1
     7     7     8   1
     8     8     9   1
     9     9    10   1
    10    10    11   1
    11    11    12   1
    12    12    13   1
    13    13    14   1
    14     1    15   1
    15     1    16   1
    16     1    17   1
    17     2    18   1
    18     2    19   1
    19     3    20   1
    20     3    21   1
    21     4    22   1
    22     4    23   1
    23     5    24   1
    24     5    25   1
    25     6    26   1
    26     6    27   1
    27     7    28   1
    28     7    29   1
    29     8    30   1
    30     8    31   1
    31     9    32   1
    32     9    33   1
    33    10    34   1
    34    10    35   1
    35    11    36   1
    36    11    37   1
    37    12    38   1
    38    12    39   1
    39    13    40   1
    40    13    41   1
    41    14    42   1
    42    14    43   1
    43    14    44   1
@<TRIPOS>SUBSTRUCTURE
     1  SPM      2

