@<TRIPOS>MOLECULE
3kwa_ligand_002
    44    43
SMALL
GAST_HUCK
****
This file was generated by PARSER (from files_GN.cpp)

@<TRIPOS>ATOM
      1 N1         -6.6558    6.1743    6.8488 N.4         1 SPM       0.2187
      2 C2         -7.4098    7.2826    7.4477 C.3         1 SPM      -0.0305
      3 C3         -6.6208    8.0480    8.5379 C.3         1 SPM       0.0275
      4 C4         -6.2789    7.2429    9.8186 C.3         1 SPM      -0.0288
      5 N5         -5.3066    6.1543    9.5562 N.4         1 SPM       0.2271
      6 C6         -4.3214    5.8698   10.6247 C.3         1 SPM      -0.0335
      7 C7         -3.3890    4.7001   10.2145 C.3         1 SPM      -0.0078
      8 C8         -3.9233    3.2781   10.5523 C.3         1 SPM      -0.0078
      9 C9         -3.7916    2.8858   12.0546 C.3         1 SPM      -0.0335
     10 N10        -3.3415    1.4841   12.2551 N.4         1 SPM       0.2271
     11 C11        -4.3617    0.4028   12.2625 C.3         1 SPM      -0.0288
     12 C12        -4.4358   -0.3042   13.6430 C.3         1 SPM       0.0275
     13 C13        -4.9280    0.5968   14.8151 C.3         1 SPM      -0.0305
     14 N14        -3.8741    0.8443   15.8041 N.4         1 SPM       0.2187
     15 H1         -7.1231    5.8865    5.9863 H           1 SPM       0.1994
     16 H2         -6.6208    5.3836    7.4945 H           1 SPM       0.1994
     17 H3         -5.7061    6.4808    6.6276 H           1 SPM       0.1994
     18 H4         -8.3458    6.8987    7.8603 H           1 SPM       0.0815
     19 H5         -7.6559    7.9817    6.6456 H           1 SPM       0.0815
     20 H6         -7.2228    8.9121    8.8357 H           1 SPM       0.0369
     21 H7         -5.6927    8.4332    8.1037 H           1 SPM       0.0369
     22 H8         -7.1890    6.8138   10.2414 H           1 SPM       0.0816
     23 H9         -5.8768    7.9531   10.5481 H           1 SPM       0.0816
     24 H10        -4.7752    6.3971    8.7180 H           1 SPM       0.2013
     25 H11        -5.8268    5.2991    9.3609 H           1 SPM       0.2013
     26 H12        -4.8291    5.6485   11.5670 H           1 SPM       0.0814
     27 H13        -3.7104    6.7652   10.7681 H           1 SPM       0.0814
     28 H14        -2.4180    4.8373   10.6969 H           1 SPM       0.0319
     29 H15        -3.2067    4.7579    9.1382 H           1 SPM       0.0319
     30 H16        -3.3626    2.5682    9.9433 H           1 SPM       0.0319
     31 H17        -4.9687    3.1978   10.2506 H           1 SPM       0.0319
     32 H18        -4.7374    3.0699   12.5729 H           1 SPM       0.0814
     33 H19        -3.0352    3.5065   12.5406 H           1 SPM       0.0814
     34 H20        -2.8366    1.4456   13.1452 H           1 SPM       0.2013
     35 H21        -2.6586    1.2674   11.5196 H           1 SPM       0.2013
     36 H22        -4.0614   -0.3415   11.5133 H           1 SPM       0.0816
     37 H23        -5.3551    0.7652   11.9825 H           1 SPM       0.0816
     38 H24        -3.4517   -0.7194   13.8736 H           1 SPM       0.0369
     39 H25        -5.1073   -1.1576   13.5456 H           1 SPM       0.0369
     40 H26        -5.7441    0.1059   15.3458 H           1 SPM       0.0815
     41 H27        -5.2978    1.5595   14.4536 H           1 SPM       0.0815
     42 H28        -4.1945    1.5472   16.4753 H           1 SPM       0.1994
     43 H29        -3.0325    1.1826   15.3384 H           1 SPM       0.1994
     44 H30        -3.6669   -0.0314   16.2961 H           1 SPM       0.1994
@<TRIPOS>BOND
     1     1     2   1
     2     2     3   1
     3     3     4   1
     4     4     5   1
     5     5     6   1
     6     6     7   1
     7     7     8   1
     8     8     9   1
     9     9    10   1
    10    10    11   1
    11    11    12   1
    12    12    13   1
    13    13    14   1
    14     1    15   1
    15     1    16   1
    16     1    17   1
    17     2    18   1
    18     2    19   1
    19     3    20   1
    20     3    21   1
    21     4    22   1
    22     4    23   1
    23     5    24   1
    24     5    25   1
    25     6    26   1
    26     6    27   1
    27     7    28   1
    28     7    29   1
    29     8    30   1
    30     8    31   1
    31     9    32   1
    32     9    33   1
    33    10    34   1
    34    10    35   1
    35    11    36   1
    36    11    37   1
    37    12    38   1
    38    12    39   1
    39    13    40   1
    40    13    41   1
    41    14    42   1
    42    14    43   1
    43    14    44   1
@<TRIPOS>SUBSTRUCTURE
     1  SPM      2

