@<TRIPOS>MOLECULE
3kwa_ligand_033
    44    43
SMALL
GAST_HUCK
****
This file was generated by PARSER (from files_GN.cpp)

@<TRIPOS>ATOM
      1 N1         -4.1203    1.4109   13.3440 N.4         1 SPM       0.2187
      2 C2         -4.3004    1.6346   11.9070 C.3         1 SPM      -0.0305
      3 C3         -3.9579    3.0934   11.5318 C.3         1 SPM       0.0275
      4 C4         -3.7304    3.2869   10.0079 C.3         1 SPM      -0.0288
      5 N5         -3.3088    4.6642    9.6575 N.4         1 SPM       0.2271
      6 C6         -4.3533    5.7299    9.6740 C.3         1 SPM      -0.0335
      7 C7         -4.8140    6.1400    8.2457 C.3         1 SPM      -0.0078
      8 C8         -5.8178    7.3316    8.2233 C.3         1 SPM      -0.0078
      9 C9         -7.1067    7.1366    9.0743 C.3         1 SPM      -0.0335
     10 N10        -8.3114    6.9185    8.2328 N.4         1 SPM       0.2271
     11 C11        -9.4739    7.8175    8.4523 C.3         1 SPM      -0.0288
     12 C12        -9.2661    9.1988    7.7777 C.3         1 SPM       0.0275
     13 C13       -10.5749    9.9338    7.4076 C.3         1 SPM      -0.0305
     14 N14       -11.2717   10.4883    8.5745 N.4         1 SPM       0.2187
     15 H1         -4.3827    0.4509   13.5696 H           1 SPM       0.1994
     16 H2         -4.7156    2.0555   13.8736 H           1 SPM       0.1994
     17 H3         -3.1404    1.5633   13.5989 H           1 SPM       0.1994
     18 H4         -5.3347    1.4159   11.6398 H           1 SPM       0.0815
     19 H5         -3.6420    0.9502   11.3691 H           1 SPM       0.0815
     20 H6         -3.0445    3.3955   12.0571 H           1 SPM       0.0369
     21 H7         -4.7709    3.7529   11.8555 H           1 SPM       0.0369
     22 H8         -4.6239    3.0170    9.4393 H           1 SPM       0.0816
     23 H9         -2.9173    2.6316    9.6912 H           1 SPM       0.0816
     24 H10        -2.8898    4.6542    8.7192 H           1 SPM       0.2013
     25 H11        -2.5776    4.9483   10.3155 H           1 SPM       0.2013
     26 H12        -3.9063    6.6095   10.1548 H           1 SPM       0.0814
     27 H13        -5.2332    5.4397   10.2571 H           1 SPM       0.0814
     28 H14        -5.2596    5.2806    7.7303 H           1 SPM       0.0319
     29 H15        -3.9282    6.4449    7.6754 H           1 SPM       0.0319
     30 H16        -6.1071    7.5239    7.1824 H           1 SPM       0.0319
     31 H17        -5.2994    8.2293    8.5737 H           1 SPM       0.0319
     32 H18        -7.2286    8.0130    9.7243 H           1 SPM       0.0814
     33 H19        -6.9824    6.2639    9.7265 H           1 SPM       0.0814
     34 H20        -8.6264    5.9556    8.3900 H           1 SPM       0.2013
     35 H21        -8.0520    6.9924    7.2389 H           1 SPM       0.2013
     36 H22        -9.6566    7.9289    9.5290 H           1 SPM       0.0816
     37 H23       -10.3480    7.3289    8.0190 H           1 SPM       0.0816
     38 H24        -8.6962    9.0492    6.8567 H           1 SPM       0.0369
     39 H25        -8.6751    9.8373    8.4366 H           1 SPM       0.0369
     40 H26       -11.2568    9.2552    6.8954 H           1 SPM       0.0815
     41 H27       -10.3390   10.7586    6.7363 H           1 SPM       0.0815
     42 H28       -12.1090   10.9853    8.2551 H           1 SPM       0.1994
     43 H29       -10.6596   11.1403    9.0775 H           1 SPM       0.1994
     44 H30       -11.5599    9.7289    9.1991 H           1 SPM       0.1994
@<TRIPOS>BOND
     1     1     2   1
     2     2     3   1
     3     3     4   1
     4     4     5   1
     5     5     6   1
     6     6     7   1
     7     7     8   1
     8     8     9   1
     9     9    10   1
    10    10    11   1
    11    11    12   1
    12    12    13   1
    13    13    14   1
    14     1    15   1
    15     1    16   1
    16     1    17   1
    17     2    18   1
    18     2    19   1
    19     3    20   1
    20     3    21   1
    21     4    22   1
    22     4    23   1
    23     5    24   1
    24     5    25   1
    25     6    26   1
    26     6    27   1
    27     7    28   1
    28     7    29   1
    29     8    30   1
    30     8    31   1
    31     9    32   1
    32     9    33   1
    33    10    34   1
    34    10    35   1
    35    11    36   1
    36    11    37   1
    37    12    38   1
    38    12    39   1
    39    13    40   1
    40    13    41   1
    41    14    42   1
    42    14    43   1
    43    14    44   1
@<TRIPOS>SUBSTRUCTURE
     1  SPM      2

