@<TRIPOS>MOLECULE
3kwa_ligand_059
    44    43
SMALL
GAST_HUCK
****
This file was generated by PARSER (from files_GN.cpp)

@<TRIPOS>ATOM
      1 N1         -1.6874    4.1288    7.7754 N.4         1 SPM       0.2187
      2 C2         -2.0882    3.9569    9.1811 C.3         1 SPM      -0.0305
      3 C3         -2.8405    5.2077    9.7128 C.3         1 SPM       0.0275
      4 C4         -4.3463    5.2133    9.3287 C.3         1 SPM      -0.0288
      5 N5         -4.9131    6.5798    9.3852 N.4         1 SPM       0.2271
      6 C6         -6.3132    6.7187    8.9103 C.3         1 SPM      -0.0335
      7 C7         -6.4938    6.6503    7.3655 C.3         1 SPM      -0.0078
      8 C8         -5.8143    7.7900    6.5440 C.3         1 SPM      -0.0078
      9 C9         -6.3631    9.2224    6.7887 C.3         1 SPM      -0.0335
     10 N10        -7.7641    9.3149    6.3157 N.4         1 SPM       0.2271
     11 C11        -8.5027   10.5430    6.6934 C.3         1 SPM      -0.0288
     12 C12       -10.0101   10.3714    6.3688 C.3         1 SPM       0.0275
     13 C13       -10.7884    9.5272    7.4239 C.3         1 SPM      -0.0305
     14 N14       -11.3374   10.3487    8.5074 N.4         1 SPM       0.2187
     15 H1         -1.2512    3.2665    7.4482 H           1 SPM       0.1994
     16 H2         -1.0148    4.8971    7.7085 H           1 SPM       0.1994
     17 H3         -2.5036    4.3416    7.2008 H           1 SPM       0.1994
     18 H4         -1.1812    3.7899    9.7648 H           1 SPM       0.0815
     19 H5         -2.7149    3.0634    9.2629 H           1 SPM       0.0815
     20 H6         -2.3520    6.1022    9.3145 H           1 SPM       0.0369
     21 H7         -2.7563    5.2488   10.8040 H           1 SPM       0.0369
     22 H8         -4.8964    4.5781   10.0303 H           1 SPM       0.0816
     23 H9         -4.4576    4.8013    8.3280 H           1 SPM       0.0816
     24 H10        -4.3243    7.2113    8.8390 H           1 SPM       0.2013
     25 H11        -4.8885    6.8786   10.3587 H           1 SPM       0.2013
     26 H12        -6.6864    7.6766    9.2686 H           1 SPM       0.0814
     27 H13        -6.9299    5.9485    9.3759 H           1 SPM       0.0814
     28 H14        -7.5636    6.6442    7.1393 H           1 SPM       0.0319
     29 H15        -6.1000    5.6988    7.0007 H           1 SPM       0.0319
     30 H16        -5.9378    7.5540    5.4807 H           1 SPM       0.0319
     31 H17        -4.7393    7.7732    6.7534 H           1 SPM       0.0319
     32 H18        -5.7553    9.9372    6.2251 H           1 SPM       0.0814
     33 H19        -6.2854    9.4727    7.8467 H           1 SPM       0.0814
     34 H20        -8.2777    8.5143    6.6724 H           1 SPM       0.2013
     35 H21        -7.7535    9.2571    5.2978 H           1 SPM       0.2013
     36 H22        -8.0957   11.3780    6.1240 H           1 SPM       0.0816
     37 H23        -8.3874   10.7649    7.7577 H           1 SPM       0.0816
     38 H24       -10.1086    9.8927    5.3901 H           1 SPM       0.0369
     39 H25       -10.4812   11.3548    6.2904 H           1 SPM       0.0369
     40 H26       -10.1447    8.7546    7.8458 H           1 SPM       0.0815
     41 H27       -11.6293    9.0379    6.9379 H           1 SPM       0.0815
     42 H28       -11.7487    9.7318    9.2109 H           1 SPM       0.1994
     43 H29       -12.0788   10.9385    8.1296 H           1 SPM       0.1994
     44 H30       -10.6093   10.9257    8.9297 H           1 SPM       0.1994
@<TRIPOS>BOND
     1     1     2   1
     2     2     3   1
     3     3     4   1
     4     4     5   1
     5     5     6   1
     6     6     7   1
     7     7     8   1
     8     8     9   1
     9     9    10   1
    10    10    11   1
    11    11    12   1
    12    12    13   1
    13    13    14   1
    14     1    15   1
    15     1    16   1
    16     1    17   1
    17     2    18   1
    18     2    19   1
    19     3    20   1
    20     3    21   1
    21     4    22   1
    22     4    23   1
    23     5    24   1
    24     5    25   1
    25     6    26   1
    26     6    27   1
    27     7    28   1
    28     7    29   1
    29     8    30   1
    30     8    31   1
    31     9    32   1
    32     9    33   1
    33    10    34   1
    34    10    35   1
    35    11    36   1
    36    11    37   1
    37    12    38   1
    38    12    39   1
    39    13    40   1
    40    13    41   1
    41    14    42   1
    42    14    43   1
    43    14    44   1
@<TRIPOS>SUBSTRUCTURE
     1  SPM      2

