@<TRIPOS>MOLECULE
3kwa_ligand_026
    44    43
SMALL
GAST_HUCK
****
This file was generated by PARSER (from files_GN.cpp)

@<TRIPOS>ATOM
      1 N1        -11.3636   10.5196    8.5599 N.4         1 SPM       0.2187
      2 C2        -10.7874   10.0833    7.2817 C.3         1 SPM      -0.0305
      3 C3         -9.4058    9.4147    7.4633 C.3         1 SPM       0.0275
      4 C4         -9.4217    8.1937    8.4219 C.3         1 SPM      -0.0288
      5 N5         -8.0752    7.6836    8.7498 N.4         1 SPM       0.2271
      6 C6         -7.1882    8.5520    9.5679 C.3         1 SPM      -0.0335
      7 C7         -6.1987    7.7277   10.4241 C.3         1 SPM      -0.0078
      8 C8         -5.3282    6.7348    9.6050 C.3         1 SPM      -0.0078
      9 C9         -4.4082    5.8585   10.5009 C.3         1 SPM      -0.0335
     10 N10        -4.1778    4.5425    9.8510 N.4         1 SPM       0.2271
     11 C11        -3.3467    3.5569   10.5874 C.3         1 SPM      -0.0288
     12 C12        -4.1597    2.5600   11.4684 C.3         1 SPM       0.0275
     13 C13        -4.6526    3.0695   12.8488 C.3         1 SPM      -0.0305
     14 N14        -3.5454    3.3612   13.7687 N.4         1 SPM       0.2187
     15 H1        -12.2297   11.0225    8.3816 H           1 SPM       0.1994
     16 H2        -10.7080   11.1359    9.0463 H           1 SPM       0.1994
     17 H3        -11.5709    9.7043    9.1418 H           1 SPM       0.1994
     18 H4        -10.6782   10.9639    6.6420 H           1 SPM       0.0815
     19 H5        -11.4810    9.3914    6.7973 H           1 SPM       0.0815
     20 H6         -8.7075   10.1691    7.8396 H           1 SPM       0.0369
     21 H7         -9.0464    9.0859    6.4830 H           1 SPM       0.0369
     22 H8         -9.9738    7.3805    7.9441 H           1 SPM       0.0816
     23 H9         -9.9443    8.4432    9.3481 H           1 SPM       0.0816
     24 H10        -7.5933    7.4713    7.8727 H           1 SPM       0.2013
     25 H11        -8.2074    6.8056    9.2545 H           1 SPM       0.2013
     26 H12        -7.7808    9.1738   10.2462 H           1 SPM       0.0814
     27 H13        -6.6308    9.2153    8.9009 H           1 SPM       0.0814
     28 H14        -6.7794    7.1643   11.1653 H           1 SPM       0.0319
     29 H15        -5.5436    8.4201   10.9664 H           1 SPM       0.0319
     30 H16        -4.7060    7.2939    8.8995 H           1 SPM       0.0319
     31 H17        -5.9981    6.0866    9.0308 H           1 SPM       0.0319
     32 H18        -4.8702    5.7077   11.4814 H           1 SPM       0.0814
     33 H19        -3.4426    6.3667   10.6475 H           1 SPM       0.0814
     34 H20        -3.7121    4.7298    8.9611 H           1 SPM       0.2013
     35 H21        -5.0873    4.1119    9.6491 H           1 SPM       0.2013
     36 H22        -2.5582    4.0464   11.1718 H           1 SPM       0.0816
     37 H23        -2.8433    2.9612    9.8164 H           1 SPM       0.0816
     38 H24        -3.5301    1.6796   11.6481 H           1 SPM       0.0369
     39 H25        -5.0308    2.2231   10.8943 H           1 SPM       0.0369
     40 H26        -5.2788    2.2970   13.3058 H           1 SPM       0.0815
     41 H27        -5.2651    3.9626   12.7330 H           1 SPM       0.0815
     42 H28        -3.9262    3.6745   14.6666 H           1 SPM       0.1994
     43 H29        -2.9548    4.1009   13.3737 H           1 SPM       0.1994
     44 H30        -2.9856    2.5141   13.9168 H           1 SPM       0.1994
@<TRIPOS>BOND
     1     1     2   1
     2     2     3   1
     3     3     4   1
     4     4     5   1
     5     5     6   1
     6     6     7   1
     7     7     8   1
     8     8     9   1
     9     9    10   1
    10    10    11   1
    11    11    12   1
    12    12    13   1
    13    13    14   1
    14     1    15   1
    15     1    16   1
    16     1    17   1
    17     2    18   1
    18     2    19   1
    19     3    20   1
    20     3    21   1
    21     4    22   1
    22     4    23   1
    23     5    24   1
    24     5    25   1
    25     6    26   1
    26     6    27   1
    27     7    28   1
    28     7    29   1
    29     8    30   1
    30     8    31   1
    31     9    32   1
    32     9    33   1
    33    10    34   1
    34    10    35   1
    35    11    36   1
    36    11    37   1
    37    12    38   1
    38    12    39   1
    39    13    40   1
    40    13    41   1
    41    14    42   1
    42    14    43   1
    43    14    44   1
@<TRIPOS>SUBSTRUCTURE
     1  SPM      2

