@<TRIPOS>MOLECULE
3kwa_ligand_038
    44    43
SMALL
GAST_HUCK
****
This file was generated by PARSER (from files_GN.cpp)

@<TRIPOS>ATOM
      1 N1         -5.7729    5.2592   15.4291 N.4         1 SPM       0.2187
      2 C2         -6.1317    4.9610   14.0363 C.3         1 SPM      -0.0305
      3 C3         -4.9289    5.1038   13.0757 C.3         1 SPM       0.0275
      4 C4         -4.8326    6.4918   12.3910 C.3         1 SPM      -0.0288
      5 N5         -3.5898    6.5790   11.5745 N.4         1 SPM       0.2271
      6 C6         -3.7402    6.9861   10.1566 C.3         1 SPM      -0.0335
      7 C7         -4.4217    5.8754    9.3081 C.3         1 SPM      -0.0078
      8 C8         -4.3750    6.1321    7.7752 C.3         1 SPM      -0.0078
      9 C9         -5.5714    6.9503    7.2219 C.3         1 SPM      -0.0335
     10 N10        -6.8173    6.1389    7.1597 N.4         1 SPM       0.2271
     11 C11        -7.9149    6.4633    8.0994 C.3         1 SPM      -0.0288
     12 C12        -8.4304    7.9214    7.9672 C.3         1 SPM       0.0275
     13 C13        -9.8608    8.0862    8.5356 C.3         1 SPM      -0.0305
     14 N14       -10.4000    9.4199    8.2596 N.4         1 SPM       0.2187
     15 H1         -6.5619    5.0390   16.0448 H           1 SPM       0.1994
     16 H2         -5.5379    6.2471   15.5279 H           1 SPM       0.1994
     17 H3         -4.9738    4.6866   15.7124 H           1 SPM       0.1994
     18 H4         -6.9462    5.6251   13.7409 H           1 SPM       0.0815
     19 H5         -6.5002    3.9329   14.0058 H           1 SPM       0.0815
     20 H6         -5.0177    4.3341   12.3052 H           1 SPM       0.0369
     21 H7         -4.0059    4.9151   13.6372 H           1 SPM       0.0369
     22 H8         -4.7940    7.2785   13.1522 H           1 SPM       0.0816
     23 H9         -5.7292    6.6502   11.7791 H           1 SPM       0.0816
     24 H10        -3.1172    5.6680   11.5878 H           1 SPM       0.2013
     25 H11        -2.9711    7.2565   12.0335 H           1 SPM       0.2013
     26 H12        -2.7321    7.1517    9.7589 H           1 SPM       0.0814
     27 H13        -4.2914    7.9318   10.0749 H           1 SPM       0.0814
     28 H14        -5.4628    5.7560    9.6293 H           1 SPM       0.0319
     29 H15        -3.9056    4.9317    9.5138 H           1 SPM       0.0319
     30 H16        -4.3514    5.1663    7.2605 H           1 SPM       0.0319
     31 H17        -3.4415    6.6451    7.5253 H           1 SPM       0.0319
     32 H18        -5.3359    7.2595    6.1994 H           1 SPM       0.0814
     33 H19        -5.6980    7.8620    7.8099 H           1 SPM       0.0814
     34 H20        -6.5715    5.1617    7.3313 H           1 SPM       0.2013
     35 H21        -7.1943    6.1825    6.2042 H           1 SPM       0.2013
     36 H22        -7.5963    6.2712    9.1273 H           1 SPM       0.0816
     37 H23        -8.7314    5.7739    7.8739 H           1 SPM       0.0816
     38 H24        -8.4356    8.2119    6.9153 H           1 SPM       0.0369
     39 H25        -7.7508    8.5940    8.4983 H           1 SPM       0.0369
     40 H26        -9.8454    7.9443    9.6172 H           1 SPM       0.0815
     41 H27       -10.5259    7.3384    8.0931 H           1 SPM       0.0815
     42 H28       -11.3227    9.4944    8.6869 H           1 SPM       0.1994
     43 H29       -10.4729    9.5595    7.2520 H           1 SPM       0.1994
     44 H30        -9.7840   10.1299    8.6605 H           1 SPM       0.1994
@<TRIPOS>BOND
     1     1     2   1
     2     2     3   1
     3     3     4   1
     4     4     5   1
     5     5     6   1
     6     6     7   1
     7     7     8   1
     8     8     9   1
     9     9    10   1
    10    10    11   1
    11    11    12   1
    12    12    13   1
    13    13    14   1
    14     1    15   1
    15     1    16   1
    16     1    17   1
    17     2    18   1
    18     2    19   1
    19     3    20   1
    20     3    21   1
    21     4    22   1
    22     4    23   1
    23     5    24   1
    24     5    25   1
    25     6    26   1
    26     6    27   1
    27     7    28   1
    28     7    29   1
    29     8    30   1
    30     8    31   1
    31     9    32   1
    32     9    33   1
    33    10    34   1
    34    10    35   1
    35    11    36   1
    36    11    37   1
    37    12    38   1
    38    12    39   1
    39    13    40   1
    40    13    41   1
    41    14    42   1
    42    14    43   1
    43    14    44   1
@<TRIPOS>SUBSTRUCTURE
     1  SPM      2

