@<TRIPOS>MOLECULE
3kwa_ligand_052
    44    43
SMALL
GAST_HUCK
****
This file was generated by PARSER (from files_GN.cpp)

@<TRIPOS>ATOM
      1 N1          0.6561    8.7580    6.4497 N.4         1 SPM       0.2187
      2 C2         -0.2789    8.1605    7.4117 C.3         1 SPM      -0.0305
      3 C3          0.4751    7.2848    8.4412 C.3         1 SPM       0.0275
      4 C4         -0.4263    6.6807    9.5451 C.3         1 SPM      -0.0288
      5 N5         -1.3989    5.6808    9.0339 N.4         1 SPM       0.2271
      6 C6         -2.2386    5.0672   10.0924 C.3         1 SPM      -0.0335
      7 C7         -3.1772    3.9620    9.5464 C.3         1 SPM      -0.0078
      8 C8         -4.2685    3.4947   10.5522 C.3         1 SPM      -0.0078
      9 C9         -3.7828    3.0834   11.9733 C.3         1 SPM      -0.0335
     10 N10        -2.9310    1.8661   12.0365 N.4         1 SPM       0.2271
     11 C11        -3.5591    0.5519   11.7634 C.3         1 SPM      -0.0288
     12 C12        -4.7150    0.1235   12.7094 C.3         1 SPM       0.0275
     13 C13        -4.3288   -0.7352   13.9421 C.3         1 SPM      -0.0305
     14 N14        -4.0072    0.0501   15.1379 N.4         1 SPM       0.2187
     15 H1          0.1388    9.3414    5.7878 H           1 SPM       0.1994
     16 H2          1.1428    8.0183    5.9386 H           1 SPM       0.1994
     17 H3          1.3406    9.3353    6.9438 H           1 SPM       0.1994
     18 H4         -0.9999    7.5568    6.8593 H           1 SPM       0.0815
     19 H5         -0.8106    8.9670    7.9215 H           1 SPM       0.0815
     20 H6          1.2355    7.9051    8.9268 H           1 SPM       0.0369
     21 H7          0.9906    6.4758    7.9170 H           1 SPM       0.0369
     22 H8         -0.9586    7.4896   10.0544 H           1 SPM       0.0816
     23 H9          0.2269    6.1940   10.2737 H           1 SPM       0.0816
     24 H10        -0.8808    4.9429    8.5522 H           1 SPM       0.2013
     25 H11        -2.0151    6.1388    8.3584 H           1 SPM       0.2013
     26 H12        -2.8428    5.8517   10.5550 H           1 SPM       0.0814
     27 H13        -1.5909    4.6271   10.8546 H           1 SPM       0.0814
     28 H14        -2.5795    3.1041    9.2339 H           1 SPM       0.0319
     29 H15        -3.6827    4.3479    8.6570 H           1 SPM       0.0319
     30 H16        -4.8106    2.6583   10.1077 H           1 SPM       0.0319
     31 H17        -4.9916    4.3074   10.6674 H           1 SPM       0.0319
     32 H18        -4.6527    2.9677   12.6179 H           1 SPM       0.0814
     33 H19        -3.2058    3.9068   12.3963 H           1 SPM       0.0814
     34 H20        -2.4893    1.8176   12.9586 H           1 SPM       0.2013
     35 H21        -2.1943    1.9713   11.3381 H           1 SPM       0.2013
     36 H22        -2.7710   -0.2006   11.8132 H           1 SPM       0.0816
     37 H23        -3.9233    0.5492   10.7333 H           1 SPM       0.0816
     38 H24        -5.4008   -0.4771   12.1090 H           1 SPM       0.0369
     39 H25        -5.2720    0.9944   13.0461 H           1 SPM       0.0369
     40 H26        -3.4970   -1.3973   13.7025 H           1 SPM       0.0815
     41 H27        -5.1739   -1.3674   14.2093 H           1 SPM       0.0815
     42 H28        -3.7649   -0.5884   15.9026 H           1 SPM       0.1994
     43 H29        -4.8228    0.6004   15.4107 H           1 SPM       0.1994
     44 H30        -3.2240    0.6755   14.9530 H           1 SPM       0.1994
@<TRIPOS>BOND
     1     1     2   1
     2     2     3   1
     3     3     4   1
     4     4     5   1
     5     5     6   1
     6     6     7   1
     7     7     8   1
     8     8     9   1
     9     9    10   1
    10    10    11   1
    11    11    12   1
    12    12    13   1
    13    13    14   1
    14     1    15   1
    15     1    16   1
    16     1    17   1
    17     2    18   1
    18     2    19   1
    19     3    20   1
    20     3    21   1
    21     4    22   1
    22     4    23   1
    23     5    24   1
    24     5    25   1
    25     6    26   1
    26     6    27   1
    27     7    28   1
    28     7    29   1
    29     8    30   1
    30     8    31   1
    31     9    32   1
    32     9    33   1
    33    10    34   1
    34    10    35   1
    35    11    36   1
    36    11    37   1
    37    12    38   1
    38    12    39   1
    39    13    40   1
    40    13    41   1
    41    14    42   1
    42    14    43   1
    43    14    44   1
@<TRIPOS>SUBSTRUCTURE
     1  SPM      2

