@<TRIPOS>MOLECULE
3kwa_ligand_048
    44    43
SMALL
GAST_HUCK
****
This file was generated by PARSER (from files_GN.cpp)

@<TRIPOS>ATOM
      1 N1         -4.6264   -5.0611   11.5948 N.4         1 SPM       0.2187
      2 C2         -3.6505   -4.2665   10.8360 C.3         1 SPM      -0.0305
      3 C3         -3.2582   -2.9644   11.5775 C.3         1 SPM       0.0275
      4 C4         -4.3377   -1.8411   11.5378 C.3         1 SPM      -0.0288
      5 N5         -4.3135   -1.0346   12.7836 N.4         1 SPM       0.2271
      6 C6         -4.6086    0.4127   12.6555 C.3         1 SPM      -0.0335
      7 C7         -4.6674    1.0772   14.0561 C.3         1 SPM      -0.0078
      8 C8         -5.1842    2.5455   14.0706 C.3         1 SPM      -0.0078
      9 C9         -4.3590    3.5690   13.2423 C.3         1 SPM      -0.0335
     10 N10        -3.0236    3.8026   13.8523 N.4         1 SPM       0.2271
     11 C11        -2.0375    4.5463   13.0229 C.3         1 SPM      -0.0288
     12 C12        -2.2669    6.0875   12.9470 C.3         1 SPM       0.0275
     13 C13        -1.3750    6.9346   13.8898 C.3         1 SPM      -0.0305
     14 N14        -1.6135    6.6598   15.3101 N.4         1 SPM       0.2187
     15 H1         -5.0504   -5.7629   10.9875 H           1 SPM       0.1994
     16 H2         -5.3598   -4.4551   11.9623 H           1 SPM       0.1994
     17 H3         -4.1366   -5.5258   12.3615 H           1 SPM       0.1994
     18 H4         -4.0664   -4.0372    9.8545 H           1 SPM       0.0815
     19 H5         -2.7609   -4.8838   10.6999 H           1 SPM       0.0815
     20 H6         -2.3404   -2.5726   11.1250 H           1 SPM       0.0369
     21 H7         -3.0147   -3.2224   12.6107 H           1 SPM       0.0369
     22 H8         -5.3396   -2.2657   11.4387 H           1 SPM       0.0816
     23 H9         -4.1587   -1.2218   10.6543 H           1 SPM       0.0816
     24 H10        -3.3923   -1.1164   13.2093 H           1 SPM       0.2013
     25 H11        -4.9921   -1.4391   13.4266 H           1 SPM       0.2013
     26 H12        -5.5585    0.5591   12.1368 H           1 SPM       0.0814
     27 H13        -3.8066    0.8675   12.0697 H           1 SPM       0.0814
     28 H14        -3.6780    1.0383   14.5160 H           1 SPM       0.0319
     29 H15        -5.3385    0.4880   14.6871 H           1 SPM       0.0319
     30 H16        -5.2188    2.8884   15.1065 H           1 SPM       0.0319
     31 H17        -6.2135    2.5517   13.6972 H           1 SPM       0.0319
     32 H18        -4.9097    4.5099   13.2130 H           1 SPM       0.0814
     33 H19        -4.2629    3.2165   12.2196 H           1 SPM       0.0814
     34 H20        -2.6164    2.8921   14.0573 H           1 SPM       0.2013
     35 H21        -3.1481    4.2971   14.7305 H           1 SPM       0.2013
     36 H22        -2.0312    4.1276   12.0136 H           1 SPM       0.0816
     37 H23        -1.0480    4.3454   13.4437 H           1 SPM       0.0816
     38 H24        -3.3122    6.3232   13.1451 H           1 SPM       0.0369
     39 H25        -2.0549    6.4136   11.9243 H           1 SPM       0.0369
     40 H26        -1.5746    7.9945   13.7126 H           1 SPM       0.0815
     41 H27        -0.3219    6.7473   13.6709 H           1 SPM       0.0815
     42 H28        -0.9838    7.2345   15.8756 H           1 SPM       0.1994
     43 H29        -1.4358    5.6726   15.5079 H           1 SPM       0.1994
     44 H30        -2.5806    6.8881   15.5473 H           1 SPM       0.1994
@<TRIPOS>BOND
     1     1     2   1
     2     2     3   1
     3     3     4   1
     4     4     5   1
     5     5     6   1
     6     6     7   1
     7     7     8   1
     8     8     9   1
     9     9    10   1
    10    10    11   1
    11    11    12   1
    12    12    13   1
    13    13    14   1
    14     1    15   1
    15     1    16   1
    16     1    17   1
    17     2    18   1
    18     2    19   1
    19     3    20   1
    20     3    21   1
    21     4    22   1
    22     4    23   1
    23     5    24   1
    24     5    25   1
    25     6    26   1
    26     6    27   1
    27     7    28   1
    28     7    29   1
    29     8    30   1
    30     8    31   1
    31     9    32   1
    32     9    33   1
    33    10    34   1
    34    10    35   1
    35    11    36   1
    36    11    37   1
    37    12    38   1
    38    12    39   1
    39    13    40   1
    40    13    41   1
    41    14    42   1
    42    14    43   1
    43    14    44   1
@<TRIPOS>SUBSTRUCTURE
     1  SPM      2

