@<TRIPOS>MOLECULE
3kwa_ligand_014
    44    43
SMALL
GAST_HUCK
****
This file was generated by PARSER (from files_GN.cpp)

@<TRIPOS>ATOM
      1 N1          1.8887    6.0884   12.6596 N.4         1 SPM       0.2187
      2 C2          2.1070    5.6915   11.2615 C.3         1 SPM      -0.0305
      3 C3          0.7914    5.3646   10.5082 C.3         1 SPM       0.0275
      4 C4          0.1804    3.9731   10.8245 C.3         1 SPM      -0.0288
      5 N5         -0.5614    3.9738   12.1103 N.4         1 SPM       0.2271
      6 C6         -1.7278    3.0604   12.2362 C.3         1 SPM      -0.0335
      7 C7         -2.8681    3.3559   11.2112 C.3         1 SPM      -0.0078
      8 C8         -4.3060    2.9252   11.6372 C.3         1 SPM      -0.0078
      9 C9         -4.6948    1.4403   11.3921 C.3         1 SPM      -0.0335
     10 N10        -3.7364    0.4706   11.9677 N.4         1 SPM       0.2271
     11 C11        -4.1852   -0.9531   12.0179 C.3         1 SPM      -0.0288
     12 C12        -2.9856   -1.9536   12.0470 C.3         1 SPM       0.0275
     13 C13        -2.9145   -2.9851   10.8854 C.3         1 SPM      -0.0305
     14 N14        -3.5983   -4.2457   11.2062 N.4         1 SPM       0.2187
     15 H1          2.7845    6.3705   13.0691 H           1 SPM       0.1994
     16 H2          1.5117    5.3002   13.1905 H           1 SPM       0.1994
     17 H3          1.2368    6.8782   12.6970 H           1 SPM       0.1994
     18 H4          2.7765    4.8263   11.2423 H           1 SPM       0.0815
     19 H5          2.6116    6.5196   10.7558 H           1 SPM       0.0815
     20 H6          1.0096    5.3976    9.4345 H           1 SPM       0.0369
     21 H7          0.0544    6.1501   10.7080 H           1 SPM       0.0369
     22 H8          0.9685    3.2159   10.8734 H           1 SPM       0.0816
     23 H9         -0.4810    3.7054    9.9953 H           1 SPM       0.0816
     24 H10        -0.9032    4.9210   12.2896 H           1 SPM       0.2013
     25 H11         0.1023    3.7361   12.8533 H           1 SPM       0.2013
     26 H12        -2.1229    3.1991   13.2479 H           1 SPM       0.0814
     27 H13        -1.3944    2.0252   12.1453 H           1 SPM       0.0814
     28 H14        -2.6353    2.8901   10.2495 H           1 SPM       0.0319
     29 H15        -2.8920    4.4380   11.0512 H           1 SPM       0.0319
     30 H16        -5.0090    3.5304   11.0523 H           1 SPM       0.0319
     31 H17        -4.4727    3.1763   12.6883 H           1 SPM       0.0319
     32 H18        -4.7435    1.2696   10.3125 H           1 SPM       0.0814
     33 H19        -5.6927    1.2695   11.8125 H           1 SPM       0.0814
     34 H20        -3.5002    0.7681   12.9187 H           1 SPM       0.2013
     35 H21        -2.8931    0.5310   11.3947 H           1 SPM       0.2013
     36 H22        -4.8412   -1.1751   11.1737 H           1 SPM       0.0816
     37 H23        -4.7759   -1.0831   12.9275 H           1 SPM       0.0816
     38 H24        -2.9932   -2.5062   12.9922 H           1 SPM       0.0369
     39 H25        -2.0501   -1.3927   12.0283 H           1 SPM       0.0369
     40 H26        -1.8695   -3.2320   10.6712 H           1 SPM       0.0815
     41 H27        -3.3336   -2.5645    9.9671 H           1 SPM       0.0815
     42 H28        -3.6107   -4.8259   10.3682 H           1 SPM       0.1994
     43 H29        -4.5584   -4.0595   11.5067 H           1 SPM       0.1994
     44 H30        -3.0918   -4.7467   11.9445 H           1 SPM       0.1994
@<TRIPOS>BOND
     1     1     2   1
     2     2     3   1
     3     3     4   1
     4     4     5   1
     5     5     6   1
     6     6     7   1
     7     7     8   1
     8     8     9   1
     9     9    10   1
    10    10    11   1
    11    11    12   1
    12    12    13   1
    13    13    14   1
    14     1    15   1
    15     1    16   1
    16     1    17   1
    17     2    18   1
    18     2    19   1
    19     3    20   1
    20     3    21   1
    21     4    22   1
    22     4    23   1
    23     5    24   1
    24     5    25   1
    25     6    26   1
    26     6    27   1
    27     7    28   1
    28     7    29   1
    29     8    30   1
    30     8    31   1
    31     9    32   1
    32     9    33   1
    33    10    34   1
    34    10    35   1
    35    11    36   1
    36    11    37   1
    37    12    38   1
    38    12    39   1
    39    13    40   1
    40    13    41   1
    41    14    42   1
    42    14    43   1
    43    14    44   1
@<TRIPOS>SUBSTRUCTURE
     1  SPM      2

