@<TRIPOS>MOLECULE
3kwa_ligand_027
    44    43
SMALL
GAST_HUCK
****
This file was generated by PARSER (from files_GN.cpp)

@<TRIPOS>ATOM
      1 N1          0.6827    6.0571   12.6437 N.4         1 SPM       0.2187
      2 C2         -0.7741    6.1505   12.4361 C.3         1 SPM      -0.0305
      3 C3         -1.5590    6.2830   13.7710 C.3         1 SPM       0.0275
      4 C4         -1.8284    4.9443   14.5112 C.3         1 SPM      -0.0288
      5 N5         -2.7965    4.0325   13.8447 N.4         1 SPM       0.2271
      6 C6         -4.2525    4.2791   14.0300 C.3         1 SPM      -0.0335
      7 C7         -4.8925    5.4349   13.2100 C.3         1 SPM      -0.0078
      8 C8         -4.3805    5.5037   11.7461 C.3         1 SPM      -0.0078
      9 C9         -5.0619    6.6187   10.9183 C.3         1 SPM      -0.0335
     10 N10        -5.1265    6.1926    9.4953 N.4         1 SPM       0.2271
     11 C11        -5.8206    7.1223    8.5768 C.3         1 SPM      -0.0288
     12 C12        -5.0678    7.2659    7.2269 C.3         1 SPM       0.0275
     13 C13        -4.7590    5.9391    6.4888 C.3         1 SPM      -0.0305
     14 N14        -5.9694    5.1553    6.2032 N.4         1 SPM       0.2187
     15 H1          1.1442    5.9689   11.7326 H           1 SPM       0.1994
     16 H2          0.8947    5.2321   13.2175 H           1 SPM       0.1994
     17 H3          1.0149    6.9089   13.1185 H           1 SPM       0.1994
     18 H4         -1.1001    5.2741   11.8688 H           1 SPM       0.0815
     19 H5         -0.9636    7.0463   11.8303 H           1 SPM       0.0815
     20 H6         -2.5104    6.7705   13.5577 H           1 SPM       0.0369
     21 H7         -1.0030    6.9437   14.4433 H           1 SPM       0.0369
     22 H8         -2.1605    5.1651   15.5339 H           1 SPM       0.0816
     23 H9         -0.8784    4.4001   14.5942 H           1 SPM       0.0816
     24 H10        -2.6192    3.0932   14.2222 H           1 SPM       0.2013
     25 H11        -2.5892    3.9957   12.8440 H           1 SPM       0.2013
     26 H12        -4.4523    4.4416   15.0956 H           1 SPM       0.0814
     27 H13        -4.7573    3.3456   13.7467 H           1 SPM       0.0814
     28 H14        -4.7081    6.3826   13.7165 H           1 SPM       0.0319
     29 H15        -5.9778    5.2716   13.2000 H           1 SPM       0.0319
     30 H16        -4.5610    4.5362   11.2646 H           1 SPM       0.0319
     31 H17        -3.3034    5.6935   11.7381 H           1 SPM       0.0319
     32 H18        -4.4682    7.5384   10.9893 H           1 SPM       0.0814
     33 H19        -6.0710    6.8186   11.3002 H           1 SPM       0.0814
     34 H20        -5.6109    5.2882    9.4491 H           1 SPM       0.2013
     35 H21        -4.1642    6.0655    9.1681 H           1 SPM       0.2013
     36 H22        -5.8887    8.1215    9.0284 H           1 SPM       0.0816
     37 H23        -6.8363    6.7615    8.4009 H           1 SPM       0.0816
     38 H24        -4.1152    7.7804    7.4118 H           1 SPM       0.0369
     39 H25        -5.6620    7.9050    6.5676 H           1 SPM       0.0369
     40 H26        -4.0899    5.3211    7.0959 H           1 SPM       0.0815
     41 H27        -4.2571    6.1630    5.5469 H           1 SPM       0.0815
     42 H28        -5.7057    4.3034    5.6880 H           1 SPM       0.1994
     43 H29        -6.6156    5.7079    5.6299 H           1 SPM       0.1994
     44 H30        -6.4209    4.8931    7.0783 H           1 SPM       0.1994
@<TRIPOS>BOND
     1     1     2   1
     2     2     3   1
     3     3     4   1
     4     4     5   1
     5     5     6   1
     6     6     7   1
     7     7     8   1
     8     8     9   1
     9     9    10   1
    10    10    11   1
    11    11    12   1
    12    12    13   1
    13    13    14   1
    14     1    15   1
    15     1    16   1
    16     1    17   1
    17     2    18   1
    18     2    19   1
    19     3    20   1
    20     3    21   1
    21     4    22   1
    22     4    23   1
    23     5    24   1
    24     5    25   1
    25     6    26   1
    26     6    27   1
    27     7    28   1
    28     7    29   1
    29     8    30   1
    30     8    31   1
    31     9    32   1
    32     9    33   1
    33    10    34   1
    34    10    35   1
    35    11    36   1
    36    11    37   1
    37    12    38   1
    38    12    39   1
    39    13    40   1
    40    13    41   1
    41    14    42   1
    42    14    43   1
    43    14    44   1
@<TRIPOS>SUBSTRUCTURE
     1  SPM      2

