@<TRIPOS>MOLECULE
3kwa_ligand_053
    44    43
SMALL
GAST_HUCK
****
This file was generated by PARSER (from files_GN.cpp)

@<TRIPOS>ATOM
      1 N1         -1.1171    8.1353   15.9577 N.4         1 SPM       0.2187
      2 C2         -2.0043    8.3084   14.8038 C.3         1 SPM      -0.0305
      3 C3         -3.3246    7.5026   14.9366 C.3         1 SPM       0.0275
      4 C4         -3.1752    5.9633   14.9333 C.3         1 SPM      -0.0288
      5 N5         -2.5190    5.4807   13.6941 N.4         1 SPM       0.2271
      6 C6         -2.5564    4.0230   13.4292 C.3         1 SPM      -0.0335
      7 C7         -3.5243    3.6976   12.2565 C.3         1 SPM      -0.0078
      8 C8         -3.5789    2.1914   11.8751 C.3         1 SPM      -0.0078
      9 C9         -4.5678    1.3345   12.7143 C.3         1 SPM      -0.0335
     10 N10        -4.2702   -0.1176   12.6943 N.4         1 SPM       0.2271
     11 C11        -4.3415   -0.8112   11.3871 C.3         1 SPM      -0.0288
     12 C12        -3.8166   -2.2756   11.4705 C.3         1 SPM       0.0275
     13 C13        -4.9219   -3.3545   11.3857 C.3         1 SPM      -0.0305
     14 N14        -4.3588   -4.6903   11.1231 N.4         1 SPM       0.2187
     15 H1         -0.2787    8.7087   15.8273 H           1 SPM       0.1994
     16 H2         -0.8466    7.1530   16.0384 H           1 SPM       0.1994
     17 H3         -1.5999    8.4303   16.8094 H           1 SPM       0.1994
     18 H4         -1.4711    8.0153   13.8955 H           1 SPM       0.0815
     19 H5         -2.2488    9.3699   14.7209 H           1 SPM       0.0815
     20 H6         -3.9772    7.7811   14.1065 H           1 SPM       0.0369
     21 H7         -3.8231    7.8013   15.8618 H           1 SPM       0.0369
     22 H8         -4.1708    5.5173   15.0155 H           1 SPM       0.0816
     23 H9         -2.5857    5.6379   15.7920 H           1 SPM       0.0816
     24 H10        -1.5376    5.7691   13.7352 H           1 SPM       0.2013
     25 H11        -2.9465    5.9686   12.8990 H           1 SPM       0.2013
     26 H12        -2.8344    3.4502   14.3142 H           1 SPM       0.0814
     27 H13        -1.5496    3.7149   13.1414 H           1 SPM       0.0814
     28 H14        -3.1791    4.2584   11.3791 H           1 SPM       0.0319
     29 H15        -4.5311    4.0619   12.4950 H           1 SPM       0.0319
     30 H16        -2.5736    1.7673   11.9503 H           1 SPM       0.0319
     31 H17        -3.8805    2.1258   10.8271 H           1 SPM       0.0319
     32 H18        -5.5901    1.5066   12.3652 H           1 SPM       0.0814
     33 H19        -4.5219    1.6543   13.7595 H           1 SPM       0.0814
     34 H20        -4.9211   -0.5846   13.3310 H           1 SPM       0.2013
     35 H21        -3.3281   -0.2424   13.0725 H           1 SPM       0.2013
     36 H22        -3.7241   -0.2840   10.6638 H           1 SPM       0.0816
     37 H23        -5.3692   -0.7739   11.0211 H           1 SPM       0.0816
     38 H24        -3.2422   -2.4319   12.3924 H           1 SPM       0.0369
     39 H25        -3.1236   -2.4444   10.6409 H           1 SPM       0.0369
     40 H26        -5.6094   -3.1318   10.5684 H           1 SPM       0.0815
     41 H27        -5.5028   -3.3857   12.3084 H           1 SPM       0.0815
     42 H28        -5.1452   -5.3255   10.9724 H           1 SPM       0.1994
     43 H29        -3.7953   -5.0208   11.9154 H           1 SPM       0.1994
     44 H30        -3.7762   -4.6532   10.2796 H           1 SPM       0.1994
@<TRIPOS>BOND
     1     1     2   1
     2     2     3   1
     3     3     4   1
     4     4     5   1
     5     5     6   1
     6     6     7   1
     7     7     8   1
     8     8     9   1
     9     9    10   1
    10    10    11   1
    11    11    12   1
    12    12    13   1
    13    13    14   1
    14     1    15   1
    15     1    16   1
    16     1    17   1
    17     2    18   1
    18     2    19   1
    19     3    20   1
    20     3    21   1
    21     4    22   1
    22     4    23   1
    23     5    24   1
    24     5    25   1
    25     6    26   1
    26     6    27   1
    27     7    28   1
    28     7    29   1
    29     8    30   1
    30     8    31   1
    31     9    32   1
    32     9    33   1
    33    10    34   1
    34    10    35   1
    35    11    36   1
    36    11    37   1
    37    12    38   1
    38    12    39   1
    39    13    40   1
    40    13    41   1
    41    14    42   1
    42    14    43   1
    43    14    44   1
@<TRIPOS>SUBSTRUCTURE
     1  SPM      2

