@<TRIPOS>MOLECULE
3kwa_ligand_040
    44    43
SMALL
GAST_HUCK
****
This file was generated by PARSER (from files_GN.cpp)

@<TRIPOS>ATOM
      1 N1         -7.3870    7.8878   12.4517 N.4         1 SPM       0.2187
      2 C2         -6.9992    6.9266   13.4810 C.3         1 SPM      -0.0305
      3 C3         -5.4778    6.6281   13.4736 C.3         1 SPM       0.0275
      4 C4         -5.0230    5.7922   14.7045 C.3         1 SPM      -0.0288
      5 N5         -3.6032    5.3197   14.6060 N.4         1 SPM       0.2271
      6 C6         -3.3896    3.9817   13.9915 C.3         1 SPM      -0.0335
      7 C7         -3.9605    3.8365   12.5556 C.3         1 SPM      -0.0078
      8 C8         -3.7774    2.3868   11.9721 C.3         1 SPM      -0.0078
      9 C9         -4.8070    1.3686   12.4918 C.3         1 SPM      -0.0335
     10 N10        -4.2952   -0.0285   12.4984 N.4         1 SPM       0.2271
     11 C11        -4.3716   -0.7754   11.2295 C.3         1 SPM      -0.0288
     12 C12        -3.8426   -2.2161   11.3757 C.3         1 SPM       0.0275
     13 C13        -4.9470   -3.3087   11.3795 C.3         1 SPM      -0.0305
     14 N14        -4.3852   -4.6487   11.1891 N.4         1 SPM       0.2187
     15 H1         -8.3980    8.0555   12.5132 H           1 SPM       0.1994
     16 H2         -7.1641    7.5316   11.5211 H           1 SPM       0.1994
     17 H3         -6.8949    8.7750   12.6082 H           1 SPM       0.1994
     18 H4         -7.5498    5.9914   13.2903 H           1 SPM       0.0815
     19 H5         -7.3071    7.3101   14.4537 H           1 SPM       0.0815
     20 H6         -4.9041    7.5578   13.4360 H           1 SPM       0.0369
     21 H7         -5.2480    6.0978   12.5309 H           1 SPM       0.0369
     22 H8         -5.6852    4.9431   14.8697 H           1 SPM       0.0816
     23 H9         -5.0935    6.4337   15.5876 H           1 SPM       0.0816
     24 H10        -3.2379    5.2569   15.5598 H           1 SPM       0.2013
     25 H11        -3.0591    6.0069   14.0970 H           1 SPM       0.2013
     26 H12        -3.8004    3.2170   14.6436 H           1 SPM       0.0814
     27 H13        -2.3110    3.8354   13.9474 H           1 SPM       0.0814
     28 H14        -3.4474    4.5443   11.9063 H           1 SPM       0.0319
     29 H15        -5.0287    4.0550   12.5291 H           1 SPM       0.0319
     30 H16        -2.7590    2.0614   12.1911 H           1 SPM       0.0319
     31 H17        -3.8646    2.4677   10.8803 H           1 SPM       0.0319
     32 H18        -5.7349    1.4238   11.9011 H           1 SPM       0.0814
     33 H19        -5.0813    1.5929   13.5212 H           1 SPM       0.0814
     34 H20        -4.8120   -0.5588   13.2010 H           1 SPM       0.2013
     35 H21        -3.3129    0.0084   12.7821 H           1 SPM       0.2013
     36 H22        -3.7889   -0.2427   10.4659 H           1 SPM       0.0816
     37 H23        -5.4186   -0.7743   10.8849 H           1 SPM       0.0816
     38 H24        -3.2485   -2.3298   12.2945 H           1 SPM       0.0369
     39 H25        -3.1637   -2.4385   10.5395 H           1 SPM       0.0369
     40 H26        -5.6492   -3.1310   10.5672 H           1 SPM       0.0815
     41 H27        -5.5047   -3.2720   12.3172 H           1 SPM       0.0815
     42 H28        -5.1633   -5.2894   11.0340 H           1 SPM       0.1994
     43 H29        -3.8521   -4.9430   12.0126 H           1 SPM       0.1994
     44 H30        -3.7713   -4.6454   10.3666 H           1 SPM       0.1994
@<TRIPOS>BOND
     1     1     2   1
     2     2     3   1
     3     3     4   1
     4     4     5   1
     5     5     6   1
     6     6     7   1
     7     7     8   1
     8     8     9   1
     9     9    10   1
    10    10    11   1
    11    11    12   1
    12    12    13   1
    13    13    14   1
    14     1    15   1
    15     1    16   1
    16     1    17   1
    17     2    18   1
    18     2    19   1
    19     3    20   1
    20     3    21   1
    21     4    22   1
    22     4    23   1
    23     5    24   1
    24     5    25   1
    25     6    26   1
    26     6    27   1
    27     7    28   1
    28     7    29   1
    29     8    30   1
    30     8    31   1
    31     9    32   1
    32     9    33   1
    33    10    34   1
    34    10    35   1
    35    11    36   1
    36    11    37   1
    37    12    38   1
    38    12    39   1
    39    13    40   1
    40    13    41   1
    41    14    42   1
    42    14    43   1
    43    14    44   1
@<TRIPOS>SUBSTRUCTURE
     1  SPM      2

