@<TRIPOS>MOLECULE
3kwa_ligand_035
    44    43
SMALL
GAST_HUCK
****
This file was generated by PARSER (from files_GN.cpp)

@<TRIPOS>ATOM
      1 N1         -3.9697   -3.2800   11.5402 N.4         1 SPM       0.2187
      2 C2         -4.7651   -2.0521   11.6762 C.3         1 SPM      -0.0305
      3 C3         -3.9530   -0.7881   11.3033 C.3         1 SPM       0.0275
      4 C4         -4.6402    0.5461   11.7033 C.3         1 SPM      -0.0288
      5 N5         -3.7987    1.7230   11.3559 N.4         1 SPM       0.2271
      6 C6         -2.8326    2.1696   12.3904 C.3         1 SPM      -0.0335
      7 C7         -1.8573    3.2789   11.8855 C.3         1 SPM      -0.0078
      8 C8         -0.3649    2.8472   11.8978 C.3         1 SPM      -0.0078
      9 C9          0.6505    3.9587   11.5346 C.3         1 SPM      -0.0335
     10 N10         0.5981    4.3565   10.1027 N.4         1 SPM       0.2271
     11 C11         1.9011    4.4582    9.3962 C.3         1 SPM      -0.0288
     12 C12         2.3560    3.1077    8.7787 C.3         1 SPM       0.0275
     13 C13         1.7711    2.8624    7.3652 C.3         1 SPM      -0.0305
     14 N14         2.0926    1.5188    6.8738 N.4         1 SPM       0.2187
     15 H1         -4.5565   -4.0855   11.7622 H           1 SPM       0.1994
     16 H2         -3.1815   -3.2466   12.1894 H           1 SPM       0.1994
     17 H3         -3.6197   -3.3736   10.5859 H           1 SPM       0.1994
     18 H4         -5.0967   -1.9826   12.7130 H           1 SPM       0.0815
     19 H5         -5.6446   -2.1285   11.0323 H           1 SPM       0.0815
     20 H6         -3.7944   -0.7827   10.2215 H           1 SPM       0.0369
     21 H7         -2.9780   -0.8429   11.7945 H           1 SPM       0.0369
     22 H8         -4.8862    0.5405   12.7694 H           1 SPM       0.0816
     23 H9         -5.5794    0.6315   11.1533 H           1 SPM       0.0816
     24 H10        -4.4095    2.5143   11.1443 H           1 SPM       0.2013
     25 H11        -3.2593    1.5006   10.5192 H           1 SPM       0.2013
     26 H12        -2.2654    1.3048   12.7389 H           1 SPM       0.0814
     27 H13        -3.3969    2.5557   13.2432 H           1 SPM       0.0814
     28 H14        -1.9567    4.1538   12.5370 H           1 SPM       0.0319
     29 H15        -2.1351    3.5904   10.8746 H           1 SPM       0.0319
     30 H16        -0.2240    2.0011   11.2210 H           1 SPM       0.0319
     31 H17        -0.1207    2.5006   12.9045 H           1 SPM       0.0319
     32 H18         1.6442    3.5900   11.8069 H           1 SPM       0.0814
     33 H19         0.4543    4.8422   12.1463 H           1 SPM       0.0814
     34 H20         0.1535    5.2764   10.0512 H           1 SPM       0.2013
     35 H21         0.0110    3.6931    9.5893 H           1 SPM       0.2013
     36 H22         2.6737    4.8227   10.0757 H           1 SPM       0.0816
     37 H23         1.8095    5.2037    8.6027 H           1 SPM       0.0816
     38 H24         2.0736    2.2803    9.4389 H           1 SPM       0.0369
     39 H25         3.4484    3.0981    8.6954 H           1 SPM       0.0369
     40 H26         2.1924    3.5888    6.6670 H           1 SPM       0.0815
     41 H27         0.6849    2.9772    7.3761 H           1 SPM       0.0815
     42 H28         1.6879    1.3907    5.9444 H           1 SPM       0.1994
     43 H29         1.6892    0.8243    7.5030 H           1 SPM       0.1994
     44 H30         3.1097    1.3986    6.8337 H           1 SPM       0.1994
@<TRIPOS>BOND
     1     1     2   1
     2     2     3   1
     3     3     4   1
     4     4     5   1
     5     5     6   1
     6     6     7   1
     7     7     8   1
     8     8     9   1
     9     9    10   1
    10    10    11   1
    11    11    12   1
    12    12    13   1
    13    13    14   1
    14     1    15   1
    15     1    16   1
    16     1    17   1
    17     2    18   1
    18     2    19   1
    19     3    20   1
    20     3    21   1
    21     4    22   1
    22     4    23   1
    23     5    24   1
    24     5    25   1
    25     6    26   1
    26     6    27   1
    27     7    28   1
    28     7    29   1
    29     8    30   1
    30     8    31   1
    31     9    32   1
    32     9    33   1
    33    10    34   1
    34    10    35   1
    35    11    36   1
    36    11    37   1
    37    12    38   1
    38    12    39   1
    39    13    40   1
    40    13    41   1
    41    14    42   1
    42    14    43   1
    43    14    44   1
@<TRIPOS>SUBSTRUCTURE
     1  SPM      2

