@<TRIPOS>MOLECULE
3kwa_ligand_016
    44    43
SMALL
GAST_HUCK
****
This file was generated by PARSER (from files_GN.cpp)

@<TRIPOS>ATOM
      1 N1         -7.6923    0.6343   17.0931 N.4         1 SPM       0.2187
      2 C2         -7.3314    2.0492   17.3645 C.3         1 SPM      -0.0305
      3 C3         -6.4074    2.6566   16.2944 C.3         1 SPM       0.0275
      4 C4         -4.9383    2.1173   16.3641 C.3         1 SPM      -0.0288
      5 N5         -4.0377    2.6766   15.3268 N.4         1 SPM       0.2271
      6 C6         -4.6383    2.9734   14.0013 C.3         1 SPM      -0.0335
      7 C7         -3.4941    3.2229   12.9795 C.3         1 SPM      -0.0078
      8 C8         -3.9705    3.2048   11.4956 C.3         1 SPM      -0.0078
      9 C9         -4.7244    1.9272   11.0607 C.3         1 SPM      -0.0335
     10 N10        -3.9970    0.6690   11.4000 N.4         1 SPM       0.2271
     11 C11        -4.5329   -0.5567   10.7681 C.3         1 SPM      -0.0288
     12 C12        -4.0687   -1.8529   11.4827 C.3         1 SPM       0.0275
     13 C13        -5.0717   -3.0302   11.3152 C.3         1 SPM      -0.0305
     14 N14        -4.4355   -4.3257   11.0441 N.4         1 SPM       0.2187
     15 H1         -8.4084    0.3343   17.7583 H           1 SPM       0.1994
     16 H2         -6.8530    0.0470   17.2118 H           1 SPM       0.1994
     17 H3         -8.0447    0.5428   16.1397 H           1 SPM       0.1994
     18 H4         -6.8601    2.0831   18.3533 H           1 SPM       0.0815
     19 H5         -8.2617    2.6101   17.4011 H           1 SPM       0.0815
     20 H6         -6.3788    3.7390   16.4284 H           1 SPM       0.0369
     21 H7         -6.8260    2.4370   15.3165 H           1 SPM       0.0369
     22 H8         -4.9457    1.0278   16.2780 H           1 SPM       0.0816
     23 H9         -4.5177    2.3790   17.3462 H           1 SPM       0.0816
     24 H10        -3.3002    1.9753   15.1657 H           1 SPM       0.2013
     25 H11        -3.5881    3.5394   15.6933 H           1 SPM       0.2013
     26 H12        -5.2505    3.8839   14.0858 H           1 SPM       0.0814
     27 H13        -5.2574    2.1312   13.6753 H           1 SPM       0.0814
     28 H14        -2.7356    2.4589   13.1042 H           1 SPM       0.0319
     29 H15        -3.0452    4.1904   13.1817 H           1 SPM       0.0319
     30 H16        -3.1025    3.3509   10.8396 H           1 SPM       0.0319
     31 H17        -4.6383    4.0568   11.3293 H           1 SPM       0.0319
     32 H18        -4.8901    1.9537    9.9668 H           1 SPM       0.0814
     33 H19        -5.7021    1.9095   11.5616 H           1 SPM       0.0814
     34 H20        -4.0392    0.5268   12.4208 H           1 SPM       0.2013
     35 H21        -3.0201    0.7865   11.1412 H           1 SPM       0.2013
     36 H22        -4.2167   -0.5866    9.7202 H           1 SPM       0.0816
     37 H23        -5.6271   -0.5151   10.7877 H           1 SPM       0.0816
     38 H24        -3.9364   -1.6560   12.5458 H           1 SPM       0.0369
     39 H25        -3.0902   -2.1420   11.0856 H           1 SPM       0.0369
     40 H26        -5.7525   -2.8309   10.4789 H           1 SPM       0.0815
     41 H27        -5.6856   -3.1191   12.2099 H           1 SPM       0.0815
     42 H28        -5.1880   -5.0079   10.9156 H           1 SPM       0.1994
     43 H29        -3.8448   -4.6218   11.8268 H           1 SPM       0.1994
     44 H30        -3.8779   -4.2755   10.1849 H           1 SPM       0.1994
@<TRIPOS>BOND
     1     1     2   1
     2     2     3   1
     3     3     4   1
     4     4     5   1
     5     5     6   1
     6     6     7   1
     7     7     8   1
     8     8     9   1
     9     9    10   1
    10    10    11   1
    11    11    12   1
    12    12    13   1
    13    13    14   1
    14     1    15   1
    15     1    16   1
    16     1    17   1
    17     2    18   1
    18     2    19   1
    19     3    20   1
    20     3    21   1
    21     4    22   1
    22     4    23   1
    23     5    24   1
    24     5    25   1
    25     6    26   1
    26     6    27   1
    27     7    28   1
    28     7    29   1
    29     8    30   1
    30     8    31   1
    31     9    32   1
    32     9    33   1
    33    10    34   1
    34    10    35   1
    35    11    36   1
    36    11    37   1
    37    12    38   1
    38    12    39   1
    39    13    40   1
    40    13    41   1
    41    14    42   1
    42    14    43   1
    43    14    44   1
@<TRIPOS>SUBSTRUCTURE
     1  SPM      2

