@<TRIPOS>MOLECULE
3kwa_ligand_010
    44    43
SMALL
GAST_HUCK
****
This file was generated by PARSER (from files_GN.cpp)

@<TRIPOS>ATOM
      1 N1         -3.8257    3.0278   15.2459 N.4         1 SPM       0.2187
      2 C2         -4.0281    4.2025   14.3831 C.3         1 SPM      -0.0305
      3 C3         -3.0052    5.3323   14.6765 C.3         1 SPM       0.0275
      4 C4         -1.5110    4.9881   14.4239 C.3         1 SPM      -0.0288
      5 N5         -1.2202    4.1769   13.2130 N.4         1 SPM       0.2271
      6 C6         -1.4916    4.7880   11.8818 C.3         1 SPM      -0.0335
      7 C7         -1.8003    3.6986   10.8087 C.3         1 SPM      -0.0078
      8 C8         -3.1078    3.9392   10.0015 C.3         1 SPM      -0.0078
      9 C9         -2.9164    4.7627    8.6988 C.3         1 SPM      -0.0335
     10 N10        -4.2020    5.3788    8.2784 N.4         1 SPM       0.2271
     11 C11        -4.4188    5.5500    6.8235 C.3         1 SPM      -0.0288
     12 C12        -5.0632    6.9176    6.4699 C.3         1 SPM       0.0275
     13 C13        -6.3781    7.2680    7.2237 C.3         1 SPM      -0.0305
     14 N14        -7.3635    6.1823    7.1710 N.4         1 SPM       0.2187
     15 H1         -4.5382    2.3218   15.0050 H           1 SPM       0.1994
     16 H2         -3.9308    3.3057   16.2354 H           1 SPM       0.1994
     17 H3         -2.8852    2.6371   15.0790 H           1 SPM       0.1994
     18 H4         -5.0423    4.5930   14.5523 H           1 SPM       0.0815
     19 H5         -3.9534    3.8992   13.3300 H           1 SPM       0.0815
     20 H6         -3.1118    5.6253   15.7269 H           1 SPM       0.0369
     21 H7         -3.2736    6.2093   14.0757 H           1 SPM       0.0369
     22 H8         -1.1397    4.4142   15.2765 H           1 SPM       0.0816
     23 H9         -0.9271    5.9146   14.3778 H           1 SPM       0.0816
     24 H10        -1.7737    3.3188   13.2908 H           1 SPM       0.2013
     25 H11        -0.2255    3.9223   13.2492 H           1 SPM       0.2013
     26 H12        -0.6117    5.3704   11.5745 H           1 SPM       0.0814
     27 H13        -2.3296    5.4789   11.9474 H           1 SPM       0.0814
     28 H14        -1.9067    2.7230   11.3008 H           1 SPM       0.0319
     29 H15        -0.9527    3.6200   10.1200 H           1 SPM       0.0319
     30 H16        -3.8406    4.4226   10.6509 H           1 SPM       0.0319
     31 H17        -3.5280    2.9695    9.7216 H           1 SPM       0.0319
     32 H18        -2.5246    4.0975    7.9225 H           1 SPM       0.0814
     33 H19        -2.1913    5.5677    8.8508 H           1 SPM       0.0814
     34 H20        -4.2666    6.3001    8.7221 H           1 SPM       0.2013
     35 H21        -4.9731    4.8041    8.6358 H           1 SPM       0.2013
     36 H22        -5.0763    4.7440    6.4718 H           1 SPM       0.0816
     37 H23        -3.4696    5.4704    6.2660 H           1 SPM       0.0816
     38 H24        -5.2648    6.9445    5.3942 H           1 SPM       0.0369
     39 H25        -4.3382    7.7124    6.6826 H           1 SPM       0.0369
     40 H26        -6.8292    8.1550    6.7729 H           1 SPM       0.0815
     41 H27        -6.1526    7.4883    8.2712 H           1 SPM       0.0815
     42 H28        -8.2262    6.4904    7.6297 H           1 SPM       0.1994
     43 H29        -6.9930    5.3654    7.6618 H           1 SPM       0.1994
     44 H30        -7.5611    5.9405    6.1980 H           1 SPM       0.1994
@<TRIPOS>BOND
     1     1     2   1
     2     2     3   1
     3     3     4   1
     4     4     5   1
     5     5     6   1
     6     6     7   1
     7     7     8   1
     8     8     9   1
     9     9    10   1
    10    10    11   1
    11    11    12   1
    12    12    13   1
    13    13    14   1
    14     1    15   1
    15     1    16   1
    16     1    17   1
    17     2    18   1
    18     2    19   1
    19     3    20   1
    20     3    21   1
    21     4    22   1
    22     4    23   1
    23     5    24   1
    24     5    25   1
    25     6    26   1
    26     6    27   1
    27     7    28   1
    28     7    29   1
    29     8    30   1
    30     8    31   1
    31     9    32   1
    32     9    33   1
    33    10    34   1
    34    10    35   1
    35    11    36   1
    36    11    37   1
    37    12    38   1
    38    12    39   1
    39    13    40   1
    40    13    41   1
    41    14    42   1
    42    14    43   1
    43    14    44   1
@<TRIPOS>SUBSTRUCTURE
     1  SPM      2

