@<TRIPOS>MOLECULE
3kwa_ligand_001
    44    43
SMALL
GAST_HUCK
****
This file was generated by PARSER (from files_GN.cpp)

@<TRIPOS>ATOM
      1 N1         -3.8133   -4.4582   11.0776 N.4         1 SPM       0.2187
      2 C2         -3.2185   -3.2273   11.6289 C.3         1 SPM      -0.0305
      3 C3         -4.1214   -1.9590   11.4976 C.3         1 SPM       0.0275
      4 C4         -4.0639   -1.0201   12.7488 C.3         1 SPM      -0.0288
      5 N5         -3.7313    0.4105   12.4585 N.4         1 SPM       0.2271
      6 C6         -4.8765    1.3569   12.4617 C.3         1 SPM      -0.0335
      7 C7         -4.4218    2.8318   12.2954 C.3         1 SPM      -0.0078
      8 C8         -4.2592    3.3171   10.8328 C.3         1 SPM      -0.0078
      9 C9         -4.0574    4.8606   10.7489 C.3         1 SPM      -0.0335
     10 N10        -4.4064    5.3888    9.4066 N.4         1 SPM       0.2271
     11 C11        -4.7998    6.8220    9.3936 C.3         1 SPM      -0.0288
     12 C12        -4.8237    7.4392    7.9677 C.3         1 SPM       0.0275
     13 C13        -6.0976    7.1507    7.1158 C.3         1 SPM      -0.0305
     14 N14        -6.1031    5.8148    6.5209 N.4         1 SPM       0.2187
     15 H1         -3.2998   -5.2577   11.4885 H           1 SPM       0.1994
     16 H2         -3.7090   -4.4573   10.0490 H           1 SPM       0.1994
     17 H3         -4.8197   -4.5291   11.3249 H           1 SPM       0.1994
     18 H4         -2.2748   -3.0451   11.1036 H           1 SPM       0.0815
     19 H5         -3.0012   -3.4201   12.6850 H           1 SPM       0.0815
     20 H6         -5.1625   -2.2781   11.3516 H           1 SPM       0.0369
     21 H7         -3.8348   -1.4192   10.5931 H           1 SPM       0.0369
     22 H8         -3.2769   -1.3821   13.4319 H           1 SPM       0.0816
     23 H9         -5.0282   -1.1083   13.2890 H           1 SPM       0.0816
     24 H10        -3.2220    0.4858   11.5686 H           1 SPM       0.2013
     25 H11        -3.0837    0.7159   13.2012 H           1 SPM       0.2013
     26 H12        -5.3636    1.2666   13.4288 H           1 SPM       0.0814
     27 H13        -5.5873    1.0736   11.6769 H           1 SPM       0.0814
     28 H14        -3.4817    2.9888   12.8301 H           1 SPM       0.0319
     29 H15        -5.1729    3.4539   12.7713 H           1 SPM       0.0319
     30 H16        -5.1584    3.0610   10.2690 H           1 SPM       0.0319
     31 H17        -3.4015    2.8253   10.3567 H           1 SPM       0.0319
     32 H18        -3.0108    5.1086   10.9621 H           1 SPM       0.0814
     33 H19        -4.6953    5.3402   11.5029 H           1 SPM       0.0814
     34 H20        -5.2017    4.8508    9.0604 H           1 SPM       0.2013
     35 H21        -3.6097    5.2563    8.7674 H           1 SPM       0.2013
     36 H22        -4.0811    7.3932   10.0040 H           1 SPM       0.0816
     37 H23        -5.7920    6.9323    9.8473 H           1 SPM       0.0816
     38 H24        -3.9366    7.1100    7.4145 H           1 SPM       0.0369
     39 H25        -4.7437    8.5275    8.0807 H           1 SPM       0.0369
     40 H26        -6.1302    7.8849    6.3043 H           1 SPM       0.0815
     41 H27        -6.9937    7.2844    7.7343 H           1 SPM       0.0815
     42 H28        -6.8782    5.7783    5.8446 H           1 SPM       0.1994
     43 H29        -6.2459    5.1110    7.2517 H           1 SPM       0.1994
     44 H30        -5.2112    5.6549    6.0345 H           1 SPM       0.1994
@<TRIPOS>BOND
     1     1     2   1
     2     2     3   1
     3     3     4   1
     4     4     5   1
     5     5     6   1
     6     6     7   1
     7     7     8   1
     8     8     9   1
     9     9    10   1
    10    10    11   1
    11    11    12   1
    12    12    13   1
    13    13    14   1
    14     1    15   1
    15     1    16   1
    16     1    17   1
    17     2    18   1
    18     2    19   1
    19     3    20   1
    20     3    21   1
    21     4    22   1
    22     4    23   1
    23     5    24   1
    24     5    25   1
    25     6    26   1
    26     6    27   1
    27     7    28   1
    28     7    29   1
    29     8    30   1
    30     8    31   1
    31     9    32   1
    32     9    33   1
    33    10    34   1
    34    10    35   1
    35    11    36   1
    36    11    37   1
    37    12    38   1
    38    12    39   1
    39    13    40   1
    40    13    41   1
    41    14    42   1
    42    14    43   1
    43    14    44   1
@<TRIPOS>SUBSTRUCTURE
     1  SPM      2

