@<TRIPOS>MOLECULE
3kwa_ligand_009
    44    43
SMALL
GAST_HUCK
****
This file was generated by PARSER (from files_GN.cpp)

@<TRIPOS>ATOM
      1 N1         -4.0810    0.2932   15.2088 N.4         1 SPM       0.2187
      2 C2         -5.1228    1.2583   15.5826 C.3         1 SPM      -0.0305
      3 C3         -5.1865    2.3910   14.5352 C.3         1 SPM       0.0275
      4 C4         -6.3170    3.4204   14.7765 C.3         1 SPM      -0.0288
      5 N5         -6.0836    4.6216   13.9424 N.4         1 SPM       0.2271
      6 C6         -5.3104    5.7236   14.5712 C.3         1 SPM      -0.0335
      7 C7         -4.4394    6.5226   13.5670 C.3         1 SPM      -0.0078
      8 C8         -5.1706    6.9918   12.2712 C.3         1 SPM      -0.0078
      9 C9         -4.7484    6.2260   10.9869 C.3         1 SPM      -0.0335
     10 N10        -5.7487    6.4090    9.9067 N.4         1 SPM       0.2271
     11 C11        -5.3638    7.1786    8.7019 C.3         1 SPM      -0.0288
     12 C12        -6.5779    7.9342    8.0915 C.3         1 SPM       0.0275
     13 C13        -7.9221    7.1612    8.0682 C.3         1 SPM      -0.0305
     14 N14        -7.8645    5.8949    7.3262 N.4         1 SPM       0.2187
     15 H1         -3.9382   -0.3829   15.9632 H           1 SPM       0.1994
     16 H2         -3.2059    0.7927   15.0287 H           1 SPM       0.1994
     17 H3         -4.3649   -0.1999   14.3604 H           1 SPM       0.1994
     18 H4         -4.8757    1.6725   16.5626 H           1 SPM       0.0815
     19 H5         -6.0799    0.7385   15.6507 H           1 SPM       0.0815
     20 H6         -5.3257    1.9535   13.5432 H           1 SPM       0.0369
     21 H7         -4.2227    2.9041   14.5389 H           1 SPM       0.0369
     22 H8         -6.3906    3.6839   15.8335 H           1 SPM       0.0816
     23 H9         -7.2687    2.9776   14.4834 H           1 SPM       0.0816
     24 H10        -6.9917    5.0014   13.6647 H           1 SPM       0.2013
     25 H11        -5.6001    4.3260   13.0933 H           1 SPM       0.2013
     26 H12        -4.6449    5.3376   15.3522 H           1 SPM       0.0814
     27 H13        -6.0232    6.3947   15.0561 H           1 SPM       0.0814
     28 H14        -3.5674    5.9192   13.3113 H           1 SPM       0.0319
     29 H15        -4.0673    7.4028   14.1010 H           1 SPM       0.0319
     30 H16        -4.9627    8.0547   12.1119 H           1 SPM       0.0319
     31 H17        -6.2524    6.9063   12.4142 H           1 SPM       0.0319
     32 H18        -4.6888    5.1567   11.1998 H           1 SPM       0.0814
     33 H19        -3.7505    6.5552   10.6819 H           1 SPM       0.0814
     34 H20        -6.5632    6.8593   10.3220 H           1 SPM       0.2013
     35 H21        -6.0438    5.4810    9.5891 H           1 SPM       0.2013
     36 H22        -4.9509    6.4835    7.9668 H           1 SPM       0.0816
     37 H23        -4.5928    7.9178    8.9376 H           1 SPM       0.0816
     38 H24        -6.3212    8.2401    7.0735 H           1 SPM       0.0369
     39 H25        -6.7315    8.8456    8.6764 H           1 SPM       0.0369
     40 H26        -8.6872    7.7941    7.6190 H           1 SPM       0.0815
     41 H27        -8.2383    6.9408    9.0895 H           1 SPM       0.0815
     42 H28        -8.7627    5.4133    7.4349 H           1 SPM       0.1994
     43 H29        -7.1207    5.3034    7.7002 H           1 SPM       0.1994
     44 H30        -7.6926    6.0769    6.3338 H           1 SPM       0.1994
@<TRIPOS>BOND
     1     1     2   1
     2     2     3   1
     3     3     4   1
     4     4     5   1
     5     5     6   1
     6     6     7   1
     7     7     8   1
     8     8     9   1
     9     9    10   1
    10    10    11   1
    11    11    12   1
    12    12    13   1
    13    13    14   1
    14     1    15   1
    15     1    16   1
    16     1    17   1
    17     2    18   1
    18     2    19   1
    19     3    20   1
    20     3    21   1
    21     4    22   1
    22     4    23   1
    23     5    24   1
    24     5    25   1
    25     6    26   1
    26     6    27   1
    27     7    28   1
    28     7    29   1
    29     8    30   1
    30     8    31   1
    31     9    32   1
    32     9    33   1
    33    10    34   1
    34    10    35   1
    35    11    36   1
    36    11    37   1
    37    12    38   1
    38    12    39   1
    39    13    40   1
    40    13    41   1
    41    14    42   1
    42    14    43   1
    43    14    44   1
@<TRIPOS>SUBSTRUCTURE
     1  SPM      2

