@<TRIPOS>MOLECULE
3kwa_ligand_044
    44    43
SMALL
GAST_HUCK
****
This file was generated by PARSER (from files_GN.cpp)

@<TRIPOS>ATOM
      1 N1         -3.8536    0.3015   15.4539 N.4         1 SPM       0.2187
      2 C2         -4.7093    1.3533   16.0292 C.3         1 SPM      -0.0305
      3 C3         -5.9743    0.7800   16.7202 C.3         1 SPM       0.0275
      4 C4         -6.7976    1.8369   17.5026 C.3         1 SPM      -0.0288
      5 N5         -7.3851    2.8796   16.6161 N.4         1 SPM       0.2271
      6 C6         -6.4991    3.9428   16.0870 C.3         1 SPM      -0.0335
      7 C7         -6.5391    4.0165   14.5326 C.3         1 SPM      -0.0078
      8 C8         -5.5431    5.0308   13.9203 C.3         1 SPM      -0.0078
      9 C9         -5.8901    6.5135   14.2079 C.3         1 SPM      -0.0335
     10 N10        -7.1926    6.9013   13.5979 N.4         1 SPM       0.2271
     11 C11        -7.2220    7.8571   12.4649 C.3         1 SPM      -0.0288
     12 C12        -5.9607    7.8777   11.5454 C.3         1 SPM       0.0275
     13 C13        -6.2327    8.0140   10.0327 C.3         1 SPM      -0.0305
     14 N14        -7.2136    9.0566    9.6968 N.4         1 SPM       0.2187
     15 H1         -3.0349    0.7720   15.0317 H           1 SPM       0.1994
     16 H2         -4.3573   -0.2200   14.7152 H           1 SPM       0.1994
     17 H3         -3.5525   -0.3427   16.2031 H           1 SPM       0.1994
     18 H4         -4.9798    2.0173   15.2048 H           1 SPM       0.0815
     19 H5         -4.1030    1.9057   16.7549 H           1 SPM       0.0815
     20 H6         -5.6518   -0.0031   17.4167 H           1 SPM       0.0369
     21 H7         -6.6145    0.3079   15.9688 H           1 SPM       0.0369
     22 H8         -6.1950    2.2829   18.3028 H           1 SPM       0.0816
     23 H9         -7.6254    1.3103   17.9829 H           1 SPM       0.0816
     24 H10        -8.1308    3.3358   17.1444 H           1 SPM       0.2013
     25 H11        -7.8170    2.3885   15.8301 H           1 SPM       0.2013
     26 H12        -5.4650    3.7957   16.4102 H           1 SPM       0.0814
     27 H13        -6.8317    4.9031   16.4972 H           1 SPM       0.0814
     28 H14        -7.5573    4.2563   14.1995 H           1 SPM       0.0319
     29 H15        -6.3058    3.0285   14.1180 H           1 SPM       0.0319
     30 H16        -5.5011    4.8944   12.8419 H           1 SPM       0.0319
     31 H17        -4.5431    4.8271   14.3003 H           1 SPM       0.0319
     32 H18        -5.0723    7.1496   13.8410 H           1 SPM       0.0814
     33 H19        -5.9632    6.6765   15.2880 H           1 SPM       0.0814
     34 H20        -7.7765    7.3040   14.3309 H           1 SPM       0.2013
     35 H21        -7.6601    6.0540   13.2784 H           1 SPM       0.2013
     36 H22        -7.4016    8.8741   12.8431 H           1 SPM       0.0816
     37 H23        -8.0957    7.5904   11.8525 H           1 SPM       0.0816
     38 H24        -5.3882    6.9630   11.6944 H           1 SPM       0.0369
     39 H25        -5.3256    8.7191   11.8463 H           1 SPM       0.0369
     40 H26        -6.5862    7.0524    9.6178 H           1 SPM       0.0815
     41 H27        -5.2977    8.2651    9.5138 H           1 SPM       0.0815
     42 H28        -7.2345    9.2128    8.6840 H           1 SPM       0.1994
     43 H29        -6.9622    9.9404   10.1682 H           1 SPM       0.1994
     44 H30        -8.1453    8.7680   10.0098 H           1 SPM       0.1994
@<TRIPOS>BOND
     1     1     2   1
     2     2     3   1
     3     3     4   1
     4     4     5   1
     5     5     6   1
     6     6     7   1
     7     7     8   1
     8     8     9   1
     9     9    10   1
    10    10    11   1
    11    11    12   1
    12    12    13   1
    13    13    14   1
    14     1    15   1
    15     1    16   1
    16     1    17   1
    17     2    18   1
    18     2    19   1
    19     3    20   1
    20     3    21   1
    21     4    22   1
    22     4    23   1
    23     5    24   1
    24     5    25   1
    25     6    26   1
    26     6    27   1
    27     7    28   1
    28     7    29   1
    29     8    30   1
    30     8    31   1
    31     9    32   1
    32     9    33   1
    33    10    34   1
    34    10    35   1
    35    11    36   1
    36    11    37   1
    37    12    38   1
    38    12    39   1
    39    13    40   1
    40    13    41   1
    41    14    42   1
    42    14    43   1
    43    14    44   1
@<TRIPOS>SUBSTRUCTURE
     1  SPM      2

