@<TRIPOS>MOLECULE
3kwa_ligand_008
    44    43
SMALL
GAST_HUCK
****
This file was generated by PARSER (from files_GN.cpp)

@<TRIPOS>ATOM
      1 N1          1.8658    6.1514   12.6666 N.4         1 SPM       0.2187
      2 C2          2.6255    5.6423   11.5191 C.3         1 SPM      -0.0305
      3 C3          1.7687    4.7765   10.5573 C.3         1 SPM       0.0275
      4 C4          1.0577    3.5653   11.2109 C.3         1 SPM      -0.0288
      5 N5         -0.1665    3.9513   11.9671 N.4         1 SPM       0.2271
      6 C6         -1.3739    3.1509   11.6655 C.3         1 SPM      -0.0335
      7 C7         -2.6749    3.6664   12.3556 C.3         1 SPM      -0.0078
      8 C8         -3.8915    3.9002   11.3925 C.3         1 SPM      -0.0078
      9 C9         -4.2349    5.3913   11.1547 C.3         1 SPM      -0.0335
     10 N10        -4.8384    5.6389    9.8210 N.4         1 SPM       0.2271
     11 C11        -5.6900    6.8581    9.7054 C.3         1 SPM      -0.0288
     12 C12        -5.5656    7.5690    8.3281 C.3         1 SPM       0.0275
     13 C13        -6.5619    7.1222    7.2222 C.3         1 SPM      -0.0305
     14 N14        -6.2085    5.8631    6.5668 N.4         1 SPM       0.2187
     15 H1          2.4742    6.7660   13.2202 H           1 SPM       0.1994
     16 H2          1.5668    5.3602   13.2437 H           1 SPM       0.1994
     17 H3          1.0494    6.6791   12.3434 H           1 SPM       0.1994
     18 H4          3.4713    5.0601   11.8959 H           1 SPM       0.0815
     19 H5          3.0150    6.5015   10.9644 H           1 SPM       0.0815
     20 H6          2.4438    4.3988    9.7862 H           1 SPM       0.0369
     21 H7          1.0302    5.4135   10.0619 H           1 SPM       0.0369
     22 H8          1.7410    3.0493   11.8954 H           1 SPM       0.0816
     23 H9          0.8203    2.8654   10.4026 H           1 SPM       0.0816
     24 H10        -0.3855    4.9324   11.7724 H           1 SPM       0.2013
     25 H11         0.0477    3.8592   12.9646 H           1 SPM       0.2013
     26 H12        -1.1935    2.1190   11.9837 H           1 SPM       0.0814
     27 H13        -1.4978    3.1504   10.5824 H           1 SPM       0.0814
     28 H14        -2.4581    4.5769   12.9193 H           1 SPM       0.0319
     29 H15        -2.9647    2.9262   13.1110 H           1 SPM       0.0319
     30 H16        -4.7817    3.4272   11.8153 H           1 SPM       0.0319
     31 H17        -3.7246    3.4027   10.4363 H           1 SPM       0.0319
     32 H18        -3.3314    5.9951   11.2158 H           1 SPM       0.0814
     33 H19        -4.9022    5.7142   11.9539 H           1 SPM       0.0814
     34 H20        -5.4008    4.8311    9.5356 H           1 SPM       0.2013
     35 H21        -4.0682    5.7198    9.1513 H           1 SPM       0.2013
     36 H22        -5.4198    7.5997   10.4661 H           1 SPM       0.0816
     37 H23        -6.7323    6.5733    9.8882 H           1 SPM       0.0816
     38 H24        -4.5363    7.4686    7.9653 H           1 SPM       0.0369
     39 H25        -5.7404    8.6404    8.4904 H           1 SPM       0.0369
     40 H26        -6.5823    7.8955    6.4481 H           1 SPM       0.0815
     41 H27        -7.5703    7.0284    7.6319 H           1 SPM       0.0815
     42 H28        -6.8583    5.7217    5.7912 H           1 SPM       0.1994
     43 H29        -6.2848    5.0931    7.2297 H           1 SPM       0.1994
     44 H30        -5.2563    5.9163    6.2006 H           1 SPM       0.1994
@<TRIPOS>BOND
     1     1     2   1
     2     2     3   1
     3     3     4   1
     4     4     5   1
     5     5     6   1
     6     6     7   1
     7     7     8   1
     8     8     9   1
     9     9    10   1
    10    10    11   1
    11    11    12   1
    12    12    13   1
    13    13    14   1
    14     1    15   1
    15     1    16   1
    16     1    17   1
    17     2    18   1
    18     2    19   1
    19     3    20   1
    20     3    21   1
    21     4    22   1
    22     4    23   1
    23     5    24   1
    24     5    25   1
    25     6    26   1
    26     6    27   1
    27     7    28   1
    28     7    29   1
    29     8    30   1
    30     8    31   1
    31     9    32   1
    32     9    33   1
    33    10    34   1
    34    10    35   1
    35    11    36   1
    36    11    37   1
    37    12    38   1
    38    12    39   1
    39    13    40   1
    40    13    41   1
    41    14    42   1
    42    14    43   1
    43    14    44   1
@<TRIPOS>SUBSTRUCTURE
     1  SPM      2

