@<TRIPOS>MOLECULE
3kwa_ligand_024
    44    43
SMALL
GAST_HUCK
****
This file was generated by PARSER (from files_GN.cpp)

@<TRIPOS>ATOM
      1 N1         -5.2327    6.1863    8.7470 N.4         1 SPM       0.2187
      2 C2         -3.9255    5.5735    8.4491 C.3         1 SPM      -0.0305
      3 C3         -3.4714    4.6181    9.5903 C.3         1 SPM       0.0275
      4 C4         -1.9839    4.7863   10.0062 C.3         1 SPM      -0.0288
      5 N5         -1.4593    3.6461   10.8117 N.4         1 SPM       0.2271
      6 C6         -1.5947    3.6490   12.2902 C.3         1 SPM      -0.0335
      7 C7         -3.0239    3.5405   12.8895 C.3         1 SPM      -0.0078
      8 C8         -3.9177    2.3871   12.3448 C.3         1 SPM      -0.0078
      9 C9         -3.5436    0.9617   12.8382 C.3         1 SPM      -0.0335
     10 N10        -4.5918   -0.0360   12.4940 N.4         1 SPM       0.2271
     11 C11        -4.4361   -0.7742   11.2120 C.3         1 SPM      -0.0288
     12 C12        -3.8422   -2.1973   11.4011 C.3         1 SPM       0.0275
     13 C13        -4.9241   -3.3094   11.4213 C.3         1 SPM      -0.0305
     14 N14        -4.3559   -4.6317   11.1242 N.4         1 SPM       0.2187
     15 H1         -5.5349    6.7519    7.9472 H           1 SPM       0.1994
     16 H2         -5.1394    6.7878    9.5737 H           1 SPM       0.1994
     17 H3         -5.9230    5.4557    8.9363 H           1 SPM       0.1994
     18 H4         -3.2079    6.3845    8.3012 H           1 SPM       0.0815
     19 H5         -4.0151    5.0211    7.5097 H           1 SPM       0.0815
     20 H6         -3.6342    3.5891    9.2643 H           1 SPM       0.0369
     21 H7         -4.0887    4.7784   10.4728 H           1 SPM       0.0369
     22 H8         -1.8464    5.7307   10.5340 H           1 SPM       0.0816
     23 H9         -1.3773    4.8299    9.0978 H           1 SPM       0.0816
     24 H10        -0.4511    3.6325   10.6389 H           1 SPM       0.2013
     25 H11        -1.8253    2.7687   10.4440 H           1 SPM       0.2013
     26 H12        -1.1153    4.5460   12.6907 H           1 SPM       0.0814
     27 H13        -1.0151    2.7989   12.6526 H           1 SPM       0.0814
     28 H14        -3.5348    4.4938   12.7214 H           1 SPM       0.0319
     29 H15        -2.9327    3.4260   13.9763 H           1 SPM       0.0319
     30 H16        -3.9116    2.4160   11.2518 H           1 SPM       0.0319
     31 H17        -4.9417    2.5880   12.6669 H           1 SPM       0.0319
     32 H18        -3.4536    0.9794   13.9288 H           1 SPM       0.0814
     33 H19        -2.5824    0.6594   12.4153 H           1 SPM       0.0814
     34 H20        -5.4819    0.4657   12.4660 H           1 SPM       0.2013
     35 H21        -4.6400   -0.7155   13.2557 H           1 SPM       0.2013
     36 H22        -3.8096   -0.2127   10.5120 H           1 SPM       0.0816
     37 H23        -5.4253   -0.8474   10.7494 H           1 SPM       0.0816
     38 H24        -3.2634   -2.2371   12.3254 H           1 SPM       0.0369
     39 H25        -3.1584   -2.3988   10.5729 H           1 SPM       0.0369
     40 H26        -5.6833   -3.0986   10.6677 H           1 SPM       0.0815
     41 H27        -5.4103   -3.3369   12.3966 H           1 SPM       0.0815
     42 H28        -5.1417   -5.2723   10.9659 H           1 SPM       0.1994
     43 H29        -3.7866   -4.9730   11.9074 H           1 SPM       0.1994
     44 H30        -3.7817   -4.5808   10.2769 H           1 SPM       0.1994
@<TRIPOS>BOND
     1     1     2   1
     2     2     3   1
     3     3     4   1
     4     4     5   1
     5     5     6   1
     6     6     7   1
     7     7     8   1
     8     8     9   1
     9     9    10   1
    10    10    11   1
    11    11    12   1
    12    12    13   1
    13    13    14   1
    14     1    15   1
    15     1    16   1
    16     1    17   1
    17     2    18   1
    18     2    19   1
    19     3    20   1
    20     3    21   1
    21     4    22   1
    22     4    23   1
    23     5    24   1
    24     5    25   1
    25     6    26   1
    26     6    27   1
    27     7    28   1
    28     7    29   1
    29     8    30   1
    30     8    31   1
    31     9    32   1
    32     9    33   1
    33    10    34   1
    34    10    35   1
    35    11    36   1
    36    11    37   1
    37    12    38   1
    38    12    39   1
    39    13    40   1
    40    13    41   1
    41    14    42   1
    42    14    43   1
    43    14    44   1
@<TRIPOS>SUBSTRUCTURE
     1  SPM      2

