@<TRIPOS>MOLECULE
3kwa_ligand_029
    44    43
SMALL
GAST_HUCK
****
This file was generated by PARSER (from files_GN.cpp)

@<TRIPOS>ATOM
      1 N1          0.7816    3.1991    6.1811 N.4         1 SPM       0.2187
      2 C2          0.1233    4.4501    5.7819 C.3         1 SPM      -0.0305
      3 C3          0.3618    5.6087    6.7855 C.3         1 SPM       0.0275
      4 C4         -0.0627    5.3156    8.2471 C.3         1 SPM      -0.0288
      5 N5         -1.4598    4.8222    8.3380 N.4         1 SPM       0.2271
      6 C6         -2.0134    4.7167    9.7115 C.3         1 SPM      -0.0335
      7 C7         -3.3369    3.9185    9.6603 C.3         1 SPM      -0.0078
      8 C8         -4.1806    3.9518   10.9707 C.3         1 SPM      -0.0078
      9 C9         -3.4974    3.4460   12.2594 C.3         1 SPM      -0.0335
     10 N10        -2.8710    2.0984   12.2091 N.4         1 SPM       0.2271
     11 C11        -3.6787    0.9262   11.7918 C.3         1 SPM      -0.0288
     12 C12        -4.8030    0.4345   12.7389 C.3         1 SPM       0.0275
     13 C13        -4.3510   -0.4774   13.9135 C.3         1 SPM      -0.0305
     14 N14        -3.9506    0.2753   15.1123 N.4         1 SPM       0.2187
     15 H1          0.5899    2.4800    5.4780 H           1 SPM       0.1994
     16 H2          0.4101    2.8893    7.0860 H           1 SPM       0.1994
     17 H3          1.7929    3.3454    6.2570 H           1 SPM       0.1994
     18 H4         -0.9476    4.2655    5.6838 H           1 SPM       0.0815
     19 H5          0.5082    4.7417    4.8011 H           1 SPM       0.0815
     20 H6         -0.1804    6.4880    6.4287 H           1 SPM       0.0369
     21 H7          1.4273    5.8610    6.7816 H           1 SPM       0.0369
     22 H8          0.0422    6.2330    8.8277 H           1 SPM       0.0816
     23 H9          0.6007    4.5620    8.6690 H           1 SPM       0.0816
     24 H10        -1.4931    3.8942    7.9140 H           1 SPM       0.2013
     25 H11        -2.0666    5.4423    7.7994 H           1 SPM       0.2013
     26 H12        -2.1983    5.7180   10.1009 H           1 SPM       0.0814
     27 H13        -1.3087    4.2027   10.3648 H           1 SPM       0.0814
     28 H14        -3.1072    2.8808    9.4080 H           1 SPM       0.0319
     29 H15        -3.9608    4.3198    8.8606 H           1 SPM       0.0319
     30 H16        -5.0865    3.3592   10.7989 H           1 SPM       0.0319
     31 H17        -4.5095    4.9856   11.1334 H           1 SPM       0.0319
     32 H18        -4.2223    3.4632   13.0811 H           1 SPM       0.0814
     33 H19        -2.7044    4.1500   12.5318 H           1 SPM       0.0814
     34 H20        -2.4705    1.9017   13.1253 H           1 SPM       0.2013
     35 H21        -2.1062    2.1507   11.5301 H           1 SPM       0.2013
     36 H22        -2.9764    0.1041   11.6367 H           1 SPM       0.0816
     37 H23        -4.1197    1.1374   10.8135 H           1 SPM       0.0816
     38 H24        -5.4752   -0.1634   12.1201 H           1 SPM       0.0369
     39 H25        -5.3733    1.2806   13.1183 H           1 SPM       0.0369
     40 H26        -3.5333   -1.1300   13.6016 H           1 SPM       0.0815
     41 H27        -5.1794   -1.1229   14.2081 H           1 SPM       0.0815
     42 H28        -3.7135   -0.3821   15.8585 H           1 SPM       0.1994
     43 H29        -4.7306    0.8642   15.4143 H           1 SPM       0.1994
     44 H30        -3.1431    0.8618   14.8943 H           1 SPM       0.1994
@<TRIPOS>BOND
     1     1     2   1
     2     2     3   1
     3     3     4   1
     4     4     5   1
     5     5     6   1
     6     6     7   1
     7     7     8   1
     8     8     9   1
     9     9    10   1
    10    10    11   1
    11    11    12   1
    12    12    13   1
    13    13    14   1
    14     1    15   1
    15     1    16   1
    16     1    17   1
    17     2    18   1
    18     2    19   1
    19     3    20   1
    20     3    21   1
    21     4    22   1
    22     4    23   1
    23     5    24   1
    24     5    25   1
    25     6    26   1
    26     6    27   1
    27     7    28   1
    28     7    29   1
    29     8    30   1
    30     8    31   1
    31     9    32   1
    32     9    33   1
    33    10    34   1
    34    10    35   1
    35    11    36   1
    36    11    37   1
    37    12    38   1
    38    12    39   1
    39    13    40   1
    40    13    41   1
    41    14    42   1
    42    14    43   1
    43    14    44   1
@<TRIPOS>SUBSTRUCTURE
     1  SPM      2

