@<TRIPOS>MOLECULE
3kwa_ligand_060
    44    43
SMALL
GAST_HUCK
****
This file was generated by PARSER (from files_GN.cpp)

@<TRIPOS>ATOM
      1 N1         -4.9117    9.0512   10.1134 N.4         1 SPM       0.2187
      2 C2         -5.2077    8.6437   11.4915 C.3         1 SPM      -0.0305
      3 C3         -5.6381    7.1515   11.6116 C.3         1 SPM       0.0275
      4 C4         -4.6021    6.2107   12.2819 C.3         1 SPM      -0.0288
      5 N5         -3.5186    5.7351   11.3880 N.4         1 SPM       0.2271
      6 C6         -3.8464    4.7383   10.3311 C.3         1 SPM      -0.0335
      7 C7         -3.4040    3.2810   10.6609 C.3         1 SPM      -0.0078
      8 C8         -4.3422    2.4592   11.5942 C.3         1 SPM      -0.0078
      9 C9         -3.5867    1.3996   12.4585 C.3         1 SPM      -0.0335
     10 N10        -4.2719    0.0931   12.5860 N.4         1 SPM       0.2271
     11 C11        -4.3573   -0.7470   11.3593 C.3         1 SPM      -0.0288
     12 C12        -3.8348   -2.2070   11.5551 C.3         1 SPM       0.0275
     13 C13        -4.9266   -3.2987   11.4343 C.3         1 SPM      -0.0305
     14 N14        -4.3680   -4.6229   11.1218 N.4         1 SPM       0.2187
     15 H1         -4.6867   10.0507   10.1027 H           1 SPM       0.1994
     16 H2         -5.7329    8.8847    9.5241 H           1 SPM       0.1994
     17 H3         -4.1165    8.5186    9.7542 H           1 SPM       0.1994
     18 H4         -6.0218    9.2846   11.8392 H           1 SPM       0.0815
     19 H5         -4.3332    8.8591   12.1088 H           1 SPM       0.0815
     20 H6         -5.9162    6.7567   10.6311 H           1 SPM       0.0369
     21 H7         -6.5396    7.1164   12.2309 H           1 SPM       0.0369
     22 H8         -5.1307    5.3649   12.7169 H           1 SPM       0.0816
     23 H9         -4.1446    6.7506   13.1140 H           1 SPM       0.0816
     24 H10        -2.7909    5.3309   11.9792 H           1 SPM       0.2013
     25 H11        -3.1118    6.5587   10.9388 H           1 SPM       0.2013
     26 H12        -3.2873    5.0529    9.4442 H           1 SPM       0.0814
     27 H13        -4.9049    4.7681   10.0636 H           1 SPM       0.0814
     28 H14        -2.3897    3.3103   11.0690 H           1 SPM       0.0319
     29 H15        -3.3508    2.7351    9.7143 H           1 SPM       0.0319
     30 H16        -5.0964    1.9767   10.9649 H           1 SPM       0.0319
     31 H17        -4.8740    3.1298   12.2690 H           1 SPM       0.0319
     32 H18        -3.4856    1.7966   13.4697 H           1 SPM       0.0814
     33 H19        -2.5721    1.2225   12.0929 H           1 SPM       0.0814
     34 H20        -5.2140    0.2659   12.9419 H           1 SPM       0.2013
     35 H21        -3.7722   -0.4306   13.3046 H           1 SPM       0.2013
     36 H22        -3.8046   -0.2934   10.5310 H           1 SPM       0.0816
     37 H23        -5.4034   -0.7461   11.0550 H           1 SPM       0.0816
     38 H24        -3.3436   -2.3157   12.5254 H           1 SPM       0.0369
     39 H25        -3.0797   -2.4105   10.7902 H           1 SPM       0.0369
     40 H26        -5.6169   -3.0455   10.6291 H           1 SPM       0.0815
     41 H27        -5.4991   -3.3638   12.3586 H           1 SPM       0.0815
     42 H28        -5.1520   -5.2469   10.9197 H           1 SPM       0.1994
     43 H29        -3.8318   -5.0017   11.9082 H           1 SPM       0.1994
     44 H30        -3.7651   -4.5569   10.2959 H           1 SPM       0.1994
@<TRIPOS>BOND
     1     1     2   1
     2     2     3   1
     3     3     4   1
     4     4     5   1
     5     5     6   1
     6     6     7   1
     7     7     8   1
     8     8     9   1
     9     9    10   1
    10    10    11   1
    11    11    12   1
    12    12    13   1
    13    13    14   1
    14     1    15   1
    15     1    16   1
    16     1    17   1
    17     2    18   1
    18     2    19   1
    19     3    20   1
    20     3    21   1
    21     4    22   1
    22     4    23   1
    23     5    24   1
    24     5    25   1
    25     6    26   1
    26     6    27   1
    27     7    28   1
    28     7    29   1
    29     8    30   1
    30     8    31   1
    31     9    32   1
    32     9    33   1
    33    10    34   1
    34    10    35   1
    35    11    36   1
    36    11    37   1
    37    12    38   1
    38    12    39   1
    39    13    40   1
    40    13    41   1
    41    14    42   1
    42    14    43   1
    43    14    44   1
@<TRIPOS>SUBSTRUCTURE
     1  SPM      2

