@<TRIPOS>MOLECULE
3kwa_ligand_049
    44    43
SMALL
GAST_HUCK
****
This file was generated by PARSER (from files_GN.cpp)

@<TRIPOS>ATOM
      1 N1          0.7489    3.1823    6.5525 N.4         1 SPM       0.2187
      2 C2          0.2968    4.5341    6.1782 C.3         1 SPM      -0.0305
      3 C3         -1.1497    4.7946    6.6626 C.3         1 SPM       0.0275
      4 C4         -1.9183    5.7768    5.7368 C.3         1 SPM      -0.0288
      5 N5         -3.3896    5.6798    5.8816 N.4         1 SPM       0.2271
      6 C6         -3.9297    5.9008    7.2380 C.3         1 SPM      -0.0335
      7 C7         -5.4042    6.3819    7.1785 C.3         1 SPM      -0.0078
      8 C8         -5.8125    7.2180    8.4271 C.3         1 SPM      -0.0078
      9 C9         -7.1675    6.8267    9.0734 C.3         1 SPM      -0.0335
     10 N10        -8.3378    6.9036    8.1639 N.4         1 SPM       0.2271
     11 C11        -9.4298    7.8532    8.5121 C.3         1 SPM      -0.0288
     12 C12        -9.1208    9.3168    8.0877 C.3         1 SPM       0.0275
     13 C13       -10.3473   10.0834    7.5240 C.3         1 SPM      -0.0305
     14 N14       -11.2918   10.4850    8.5706 N.4         1 SPM       0.2187
     15 H1          1.7238    3.0549    6.2652 H           1 SPM       0.1994
     16 H2          0.1707    2.4760    6.0847 H           1 SPM       0.1994
     17 H3          0.6838    3.0667    7.5639 H           1 SPM       0.1994
     18 H4          0.3601    4.6243    5.0938 H           1 SPM       0.0815
     19 H5          0.9743    5.2591    6.6292 H           1 SPM       0.0815
     20 H6         -1.1096    5.1842    7.6800 H           1 SPM       0.0369
     21 H7         -1.6839    3.8410    6.6856 H           1 SPM       0.0369
     22 H8         -1.6723    5.5291    4.7022 H           1 SPM       0.0816
     23 H9         -1.5736    6.8036    5.9222 H           1 SPM       0.0816
     24 H10        -3.6868    4.7620    5.5429 H           1 SPM       0.2013
     25 H11        -3.8016    6.3924    5.2749 H           1 SPM       0.2013
     26 H12        -3.3107    6.6601    7.7376 H           1 SPM       0.0814
     27 H13        -3.8938    4.9758    7.8216 H           1 SPM       0.0814
     28 H14        -6.0471    5.5033    7.0791 H           1 SPM       0.0319
     29 H15        -5.5328    6.9993    6.2800 H           1 SPM       0.0319
     30 H16        -5.8446    8.2759    8.1377 H           1 SPM       0.0319
     31 H17        -5.0531    7.1181    9.2089 H           1 SPM       0.0319
     32 H18        -7.3098    7.4446    9.9654 H           1 SPM       0.0814
     33 H19        -7.0993    5.7904    9.4034 H           1 SPM       0.0814
     34 H20        -8.7659    5.9733    8.1465 H           1 SPM       0.2013
     35 H21        -8.0242    7.1128    7.2115 H           1 SPM       0.2013
     36 H22        -9.6531    7.8150    9.5846 H           1 SPM       0.0816
     37 H23       -10.3276    7.5145    7.9914 H           1 SPM       0.0816
     38 H24        -8.3548    9.3116    7.3068 H           1 SPM       0.0369
     39 H25        -8.7166    9.8616    8.9496 H           1 SPM       0.0369
     40 H26       -10.8731    9.4698    6.7957 H           1 SPM       0.0815
     41 H27        -9.9980   10.9884    7.0222 H           1 SPM       0.0815
     42 H28       -12.1287   10.8932    8.1445 H           1 SPM       0.1994
     43 H29       -10.8539   11.1816    9.1796 H           1 SPM       0.1994
     44 H30       -11.5772    9.6742    9.1288 H           1 SPM       0.1994
@<TRIPOS>BOND
     1     1     2   1
     2     2     3   1
     3     3     4   1
     4     4     5   1
     5     5     6   1
     6     6     7   1
     7     7     8   1
     8     8     9   1
     9     9    10   1
    10    10    11   1
    11    11    12   1
    12    12    13   1
    13    13    14   1
    14     1    15   1
    15     1    16   1
    16     1    17   1
    17     2    18   1
    18     2    19   1
    19     3    20   1
    20     3    21   1
    21     4    22   1
    22     4    23   1
    23     5    24   1
    24     5    25   1
    25     6    26   1
    26     6    27   1
    27     7    28   1
    28     7    29   1
    29     8    30   1
    30     8    31   1
    31     9    32   1
    32     9    33   1
    33    10    34   1
    34    10    35   1
    35    11    36   1
    36    11    37   1
    37    12    38   1
    38    12    39   1
    39    13    40   1
    40    13    41   1
    41    14    42   1
    42    14    43   1
    43    14    44   1
@<TRIPOS>SUBSTRUCTURE
     1  SPM      2

