@<TRIPOS>MOLECULE
3kwa_ligand_012
    44    43
SMALL
GAST_HUCK
****
This file was generated by PARSER (from files_GN.cpp)

@<TRIPOS>ATOM
      1 N1         -7.0254    2.4068   17.5926 N.4         1 SPM       0.2187
      2 C2         -5.7773    1.6365   17.6179 C.3         1 SPM      -0.0305
      3 C3         -5.8360    0.4355   16.6285 C.3         1 SPM       0.0275
      4 C4         -4.6913    0.3812   15.5829 C.3         1 SPM      -0.0288
      5 N5         -4.6821    1.5829   14.7120 N.4         1 SPM       0.2271
      6 C6         -4.2926    1.3627   13.3020 C.3         1 SPM      -0.0335
      7 C7         -4.0615    2.7072   12.5586 C.3         1 SPM      -0.0078
      8 C8         -4.0298    2.5376   11.0179 C.3         1 SPM      -0.0078
      9 C9         -3.4964    3.7692   10.2374 C.3         1 SPM      -0.0335
     10 N10        -4.5239    4.8265   10.0919 N.4         1 SPM       0.2271
     11 C11        -4.2502    5.8445    9.0394 C.3         1 SPM      -0.0288
     12 C12        -5.4812    6.7720    8.8070 C.3         1 SPM       0.0275
     13 C13        -5.8266    7.0376    7.3138 C.3         1 SPM      -0.0305
     14 N14        -5.9676    5.7772    6.5618 N.4         1 SPM       0.2187
     15 H1         -6.9595    3.1969   18.2393 H           1 SPM       0.1994
     16 H2         -7.8121    1.8098   17.8666 H           1 SPM       0.1994
     17 H3         -7.1876    2.7624   16.6466 H           1 SPM       0.1994
     18 H4         -5.6167    1.2765   18.6342 H           1 SPM       0.0815
     19 H5         -4.9632    2.3184   17.3698 H           1 SPM       0.0815
     20 H6         -6.7806    0.4457   16.0769 H           1 SPM       0.0369
     21 H7         -5.8213   -0.4939   17.2045 H           1 SPM       0.0369
     22 H8         -4.8256   -0.5298   14.9910 H           1 SPM       0.0816
     23 H9         -3.7289    0.3013   16.0925 H           1 SPM       0.0816
     24 H10        -4.0403    2.2620   15.1187 H           1 SPM       0.2013
     25 H11        -5.6150    1.9935   14.7125 H           1 SPM       0.2013
     26 H12        -5.0827    0.8016   12.7992 H           1 SPM       0.0814
     27 H13        -3.3702    0.7775   13.2588 H           1 SPM       0.0814
     28 H14        -3.1125    3.1257   12.8951 H           1 SPM       0.0319
     29 H15        -4.8537    3.4105   12.8266 H           1 SPM       0.0319
     30 H16        -5.0336    2.3008   10.6544 H           1 SPM       0.0319
     31 H17        -3.3802    1.6942   10.7838 H           1 SPM       0.0319
     32 H18        -3.1886    3.4199    9.2460 H           1 SPM       0.0814
     33 H19        -2.6150    4.1753   10.7433 H           1 SPM       0.0814
     34 H20        -4.6363    5.3037   10.9883 H           1 SPM       0.2013
     35 H21        -5.4087    4.3682    9.8583 H           1 SPM       0.2013
     36 H22        -3.9967    5.3321    8.1066 H           1 SPM       0.0816
     37 H23        -3.3936    6.4537    9.3395 H           1 SPM       0.0816
     38 H24        -5.3040    7.7420    9.2835 H           1 SPM       0.0369
     39 H25        -6.3787    6.3497    9.2708 H           1 SPM       0.0369
     40 H26        -5.0460    7.6456    6.8359 H           1 SPM       0.0815
     41 H27        -6.7782    7.5795    7.2449 H           1 SPM       0.0815
     42 H28        -6.5448    5.9320    5.7321 H           1 SPM       0.1994
     43 H29        -6.4069    5.0665    7.1574 H           1 SPM       0.1994
     44 H30        -5.0373    5.4523    6.2658 H           1 SPM       0.1994
@<TRIPOS>BOND
     1     1     2   1
     2     2     3   1
     3     3     4   1
     4     4     5   1
     5     5     6   1
     6     6     7   1
     7     7     8   1
     8     8     9   1
     9     9    10   1
    10    10    11   1
    11    11    12   1
    12    12    13   1
    13    13    14   1
    14     1    15   1
    15     1    16   1
    16     1    17   1
    17     2    18   1
    18     2    19   1
    19     3    20   1
    20     3    21   1
    21     4    22   1
    22     4    23   1
    23     5    24   1
    24     5    25   1
    25     6    26   1
    26     6    27   1
    27     7    28   1
    28     7    29   1
    29     8    30   1
    30     8    31   1
    31     9    32   1
    32     9    33   1
    33    10    34   1
    34    10    35   1
    35    11    36   1
    36    11    37   1
    37    12    38   1
    38    12    39   1
    39    13    40   1
    40    13    41   1
    41    14    42   1
    42    14    43   1
    43    14    44   1
@<TRIPOS>SUBSTRUCTURE
     1  SPM      2

