@<TRIPOS>MOLECULE
3kwa_ligand_000
    44    43
SMALL
GAST_HUCK
****
This file was generated by PARSER (from files_GN.cpp)

@<TRIPOS>ATOM
      1 N1         -3.9180    0.7486   15.8396 N.4         1 SPM       0.2187
      2 C2         -5.0115    0.6215   14.8761 C.3         1 SPM      -0.0305
      3 C3         -5.0246    1.7903   13.8443 C.3         1 SPM       0.0275
      4 C4         -4.5379    1.4235   12.4067 C.3         1 SPM      -0.0288
      5 N5         -3.1646    1.8971   12.0851 N.4         1 SPM       0.2271
      6 C6         -3.0079    3.2863   11.5757 C.3         1 SPM      -0.0335
      7 C7         -3.4909    3.5072   10.1113 C.3         1 SPM      -0.0078
      8 C8         -3.3915    4.9855    9.6359 C.3         1 SPM      -0.0078
      9 C9         -4.3475    5.9933   10.3430 C.3         1 SPM      -0.0335
     10 N10        -5.5541    6.4039    9.5788 N.4         1 SPM       0.2271
     11 C11        -5.3552    7.2147    8.3490 C.3         1 SPM      -0.0288
     12 C12        -6.6566    7.9414    7.9077 C.3         1 SPM       0.0275
     13 C13        -7.9742    7.1336    8.0313 C.3         1 SPM      -0.0305
     14 N14        -7.9391    5.8519    7.3251 N.4         1 SPM       0.2187
     15 H1         -3.8275   -0.1228   16.3702 H           1 SPM       0.1994
     16 H2         -4.1223    1.5221   16.4740 H           1 SPM       0.1994
     17 H3         -3.0485    0.9440   15.3482 H           1 SPM       0.1994
     18 H4         -5.9484    0.6160   15.4408 H           1 SPM       0.0815
     19 H5         -4.9229   -0.3510   14.3838 H           1 SPM       0.0815
     20 H6         -4.4491    2.6287   14.2408 H           1 SPM       0.0369
     21 H7         -6.0489    2.1582   13.7651 H           1 SPM       0.0369
     22 H8         -5.2514    1.8192   11.6763 H           1 SPM       0.0816
     23 H9         -4.5331    0.3367   12.2697 H           1 SPM       0.0816
     24 H10        -2.7679    1.2683   11.3801 H           1 SPM       0.2013
     25 H11        -2.5999    1.8018   12.9363 H           1 SPM       0.2013
     26 H12        -1.9409    3.5069   11.6264 H           1 SPM       0.0814
     27 H13        -3.5098    3.9712   12.2556 H           1 SPM       0.0814
     28 H14        -4.5234    3.1693    9.9860 H           1 SPM       0.0319
     29 H15        -2.8659    2.8917    9.4538 H           1 SPM       0.0319
     30 H16        -3.5637    5.0130    8.5584 H           1 SPM       0.0319
     31 H17        -2.3630    5.3199    9.7932 H           1 SPM       0.0319
     32 H18        -3.7827    6.8895   10.6114 H           1 SPM       0.0814
     33 H19        -4.7100    5.5684   11.2816 H           1 SPM       0.0814
     34 H20        -6.1245    6.9668   10.2191 H           1 SPM       0.2013
     35 H21        -6.0856    5.5662    9.3316 H           1 SPM       0.2013
     36 H22        -5.0087    6.5678    7.5402 H           1 SPM       0.0816
     37 H23        -4.5844    7.9771    8.5151 H           1 SPM       0.0816
     38 H24        -6.5348    8.2581    6.8672 H           1 SPM       0.0369
     39 H25        -6.7616    8.8460    8.5144 H           1 SPM       0.0369
     40 H26        -8.7897    7.7335    7.6260 H           1 SPM       0.0815
     41 H27        -8.1933    6.9442    9.0838 H           1 SPM       0.0815
     42 H28        -8.8330    5.3755    7.4549 H           1 SPM       0.1994
     43 H29        -7.1960    5.2704    7.7055 H           1 SPM       0.1994
     44 H30        -7.7709    6.0015    6.3325 H           1 SPM       0.1994
@<TRIPOS>BOND
     1     1     2   1
     2     2     3   1
     3     3     4   1
     4     4     5   1
     5     5     6   1
     6     6     7   1
     7     7     8   1
     8     8     9   1
     9     9    10   1
    10    10    11   1
    11    11    12   1
    12    12    13   1
    13    13    14   1
    14     1    15   1
    15     1    16   1
    16     1    17   1
    17     2    18   1
    18     2    19   1
    19     3    20   1
    20     3    21   1
    21     4    22   1
    22     4    23   1
    23     5    24   1
    24     5    25   1
    25     6    26   1
    26     6    27   1
    27     7    28   1
    28     7    29   1
    29     8    30   1
    30     8    31   1
    31     9    32   1
    32     9    33   1
    33    10    34   1
    34    10    35   1
    35    11    36   1
    36    11    37   1
    37    12    38   1
    38    12    39   1
    39    13    40   1
    40    13    41   1
    41    14    42   1
    42    14    43   1
    43    14    44   1
@<TRIPOS>SUBSTRUCTURE
     1  SPM      2

