@<TRIPOS>MOLECULE
3kwa_ligand_042
    44    43
SMALL
GAST_HUCK
****
This file was generated by PARSER (from files_GN.cpp)

@<TRIPOS>ATOM
      1 N1          0.8376    3.3745   10.4131 N.4         1 SPM       0.2187
      2 C2          1.5654    4.2658   11.3225 C.3         1 SPM      -0.0305
      3 C3          0.6584    5.3019   12.0514 C.3         1 SPM       0.0275
      4 C4         -0.5932    4.6971   12.7348 C.3         1 SPM      -0.0288
      5 N5         -1.7768    4.7344   11.8367 N.4         1 SPM       0.2271
      6 C6         -2.9775    4.0213   12.3228 C.3         1 SPM      -0.0335
      7 C7         -4.1205    4.0718   11.2735 C.3         1 SPM      -0.0078
      8 C8         -3.7089    3.5862    9.8484 C.3         1 SPM      -0.0078
      9 C9         -3.2257    4.7072    8.8790 C.3         1 SPM      -0.0335
     10 N10        -4.3621    5.5278    8.3794 N.4         1 SPM       0.2271
     11 C11        -4.4246    5.7263    6.9146 C.3         1 SPM      -0.0288
     12 C12        -5.1696    7.0249    6.5184 C.3         1 SPM       0.0275
     13 C13        -6.5184    7.2839    7.2352 C.3         1 SPM      -0.0305
     14 N14        -7.4340    6.1371    7.1582 N.4         1 SPM       0.2187
     15 H1          1.5106    2.7644    9.9296 H           1 SPM       0.1994
     16 H2          0.3213    3.9320    9.7213 H           1 SPM       0.1994
     17 H3          0.1848    2.7918   10.9560 H           1 SPM       0.1994
     18 H4          2.3205    4.8069   10.7508 H           1 SPM       0.0815
     19 H5          2.0773    3.6461   12.0669 H           1 SPM       0.0815
     20 H6          0.3359    6.0722   11.3385 H           1 SPM       0.0369
     21 H7          1.2619    5.8040   12.8160 H           1 SPM       0.0369
     22 H8         -0.8432    5.2834   13.6353 H           1 SPM       0.0816
     23 H9         -0.3874    3.6657   13.0470 H           1 SPM       0.0816
     24 H10        -1.5205    4.3271   10.9355 H           1 SPM       0.2013
     25 H11        -2.0309    5.7207   11.6824 H           1 SPM       0.2013
     26 H12        -3.3336    4.4771   13.2530 H           1 SPM       0.0814
     27 H13        -2.7222    2.9770   12.5241 H           1 SPM       0.0814
     28 H14        -4.5103    5.0947   11.2217 H           1 SPM       0.0319
     29 H15        -4.9368    3.4384   11.6326 H           1 SPM       0.0319
     30 H16        -4.5692    3.0948    9.3777 H           1 SPM       0.0319
     31 H17        -2.9256    2.8241    9.9376 H           1 SPM       0.0319
     32 H18        -2.6828    4.2269    8.0548 H           1 SPM       0.0814
     33 H19        -2.5165    5.3686    9.3908 H           1 SPM       0.0814
     34 H20        -4.3108    6.4458    8.8340 H           1 SPM       0.2013
     35 H21        -5.2338    5.0789    8.6672 H           1 SPM       0.2013
     36 H22        -4.9409    4.8668    6.4731 H           1 SPM       0.0816
     37 H23        -3.4158    5.7749    6.4964 H           1 SPM       0.0816
     38 H24        -5.3385    6.9932    5.4371 H           1 SPM       0.0369
     39 H25        -4.5065    7.8723    6.7232 H           1 SPM       0.0369
     40 H26        -7.0126    8.1410    6.7670 H           1 SPM       0.0815
     41 H27        -6.3460    7.5204    8.2889 H           1 SPM       0.0815
     42 H28        -8.3141    6.3795    7.6234 H           1 SPM       0.1994
     43 H29        -7.0124    5.3339    7.6286 H           1 SPM       0.1994
     44 H30        -7.6090    5.9080    6.1787 H           1 SPM       0.1994
@<TRIPOS>BOND
     1     1     2   1
     2     2     3   1
     3     3     4   1
     4     4     5   1
     5     5     6   1
     6     6     7   1
     7     7     8   1
     8     8     9   1
     9     9    10   1
    10    10    11   1
    11    11    12   1
    12    12    13   1
    13    13    14   1
    14     1    15   1
    15     1    16   1
    16     1    17   1
    17     2    18   1
    18     2    19   1
    19     3    20   1
    20     3    21   1
    21     4    22   1
    22     4    23   1
    23     5    24   1
    24     5    25   1
    25     6    26   1
    26     6    27   1
    27     7    28   1
    28     7    29   1
    29     8    30   1
    30     8    31   1
    31     9    32   1
    32     9    33   1
    33    10    34   1
    34    10    35   1
    35    11    36   1
    36    11    37   1
    37    12    38   1
    38    12    39   1
    39    13    40   1
    40    13    41   1
    41    14    42   1
    42    14    43   1
    43    14    44   1
@<TRIPOS>SUBSTRUCTURE
     1  SPM      2

