@<TRIPOS>MOLECULE
3kwa_ligand_028
    44    43
SMALL
GAST_HUCK
****
This file was generated by PARSER (from files_GN.cpp)

@<TRIPOS>ATOM
      1 N1         -3.6708   -4.4168   11.1212 N.4         1 SPM       0.2187
      2 C2         -3.2918   -3.1034   11.6489 C.3         1 SPM      -0.0305
      3 C3         -4.2463   -1.9918   11.1622 C.3         1 SPM       0.0275
      4 C4         -4.0052   -0.6500   11.8978 C.3         1 SPM      -0.0288
      5 N5         -4.8726    0.4184   11.3503 N.4         1 SPM       0.2271
      6 C6         -4.2825    1.7687   11.1587 C.3         1 SPM      -0.0335
      7 C7         -3.7603    2.4487   12.4493 C.3         1 SPM      -0.0078
      8 C8         -4.8886    2.7382   13.4806 C.3         1 SPM      -0.0078
      9 C9         -4.3489    2.9305   14.9203 C.3         1 SPM      -0.0335
     10 N10        -5.3859    3.2142   15.9399 N.4         1 SPM       0.2271
     11 C11        -6.4672    2.2095   16.1056 C.3         1 SPM      -0.0288
     12 C12        -7.1152    2.2905   17.5059 C.3         1 SPM       0.0275
     13 C13        -6.2330    1.6897   18.6277 C.3         1 SPM      -0.0305
     14 N14        -6.6612    2.1430   19.9534 N.4         1 SPM       0.2187
     15 H1         -3.1403   -5.1432   11.6061 H           1 SPM       0.1994
     16 H2         -3.4576   -4.4528   10.1198 H           1 SPM       0.1994
     17 H3         -4.6755   -4.5799   11.2599 H           1 SPM       0.1994
     18 H4         -2.2765   -2.8703   11.3107 H           1 SPM       0.0815
     19 H5         -3.2946   -3.1509   12.7347 H           1 SPM       0.0815
     20 H6         -5.2825   -2.3080   11.3173 H           1 SPM       0.0369
     21 H7         -4.0886   -1.8390   10.0917 H           1 SPM       0.0369
     22 H8         -2.9448   -0.3863   11.8064 H           1 SPM       0.0816
     23 H9         -4.2308   -0.7707   12.9653 H           1 SPM       0.0816
     24 H10        -5.6866    0.5016   11.9601 H           1 SPM       0.2013
     25 H11        -5.2125    0.0985   10.4359 H           1 SPM       0.2013
     26 H12        -5.0510    2.4032   10.7086 H           1 SPM       0.0814
     27 H13        -3.4627    1.6921   10.4416 H           1 SPM       0.0814
     28 H14        -3.2940    3.3989   12.1723 H           1 SPM       0.0319
     29 H15        -2.9845    1.8205   12.8937 H           1 SPM       0.0319
     30 H16        -5.5890    1.9004   13.4951 H           1 SPM       0.0319
     31 H17        -5.4403    3.6295   13.1702 H           1 SPM       0.0319
     32 H18        -3.6422    3.7613   14.9257 H           1 SPM       0.0814
     33 H19        -3.8012    2.0315   15.2206 H           1 SPM       0.0814
     34 H20        -5.8149    4.1156   15.7280 H           1 SPM       0.2013
     35 H21        -4.8979    3.2991   16.8315 H           1 SPM       0.2013
     36 H22        -6.0915    1.1945   15.9416 H           1 SPM       0.0816
     37 H23        -7.2304    2.4114   15.3515 H           1 SPM       0.0816
     38 H24        -8.0679    1.7539   17.4945 H           1 SPM       0.0369
     39 H25        -7.3310    3.3415   17.7355 H           1 SPM       0.0369
     40 H26        -5.1906    1.9884   18.4986 H           1 SPM       0.0815
     41 H27        -6.2852    0.5946   18.5967 H           1 SPM       0.0815
     42 H28        -6.0222    1.7766   20.6602 H           1 SPM       0.1994
     43 H29        -7.6124    1.8210   20.1465 H           1 SPM       0.1994
     44 H30        -6.6404    3.1677   19.9863 H           1 SPM       0.1994
@<TRIPOS>BOND
     1     1     2   1
     2     2     3   1
     3     3     4   1
     4     4     5   1
     5     5     6   1
     6     6     7   1
     7     7     8   1
     8     8     9   1
     9     9    10   1
    10    10    11   1
    11    11    12   1
    12    12    13   1
    13    13    14   1
    14     1    15   1
    15     1    16   1
    16     1    17   1
    17     2    18   1
    18     2    19   1
    19     3    20   1
    20     3    21   1
    21     4    22   1
    22     4    23   1
    23     5    24   1
    24     5    25   1
    25     6    26   1
    26     6    27   1
    27     7    28   1
    28     7    29   1
    29     8    30   1
    30     8    31   1
    31     9    32   1
    32     9    33   1
    33    10    34   1
    34    10    35   1
    35    11    36   1
    36    11    37   1
    37    12    38   1
    38    12    39   1
    39    13    40   1
    40    13    41   1
    41    14    42   1
    42    14    43   1
    43    14    44   1
@<TRIPOS>SUBSTRUCTURE
     1  SPM      2

