@<TRIPOS>MOLECULE
3l3n_ligand_082
    70    72
SMALL
GAST_HUCK
****
This file was generated by PARSER (from files_GN.cpp)

@<TRIPOS>ATOM
      1 C          42.2334   11.3549  106.5000 C.2         1 LSW       0.0847
      2 N          41.5600   13.7060  106.3088 N.4         1 LSW       0.2599
      3 O          42.5625   10.8085  105.2920 O.co2       1 LSW      -0.5643
      4 CA         41.1097   12.3190  106.6168 C.3         1 LSW       0.0340
      5 CB         39.9112   11.9679  105.6863 C.3         1 LSW       0.0122
      6 NAA        43.7723   19.6404  104.5374 N.4         1 LSW       0.2185
      7 OAC        40.1314   15.8645  112.3897 O.co2       1 LSW      -0.5665
      8 OAD        43.0640   14.1309  109.4881 O.2         1 LSW      -0.3908
      9 OAF        40.7774   16.6163  110.3084 O.co2       1 LSW      -0.5665
     10 CAG        38.2446    8.3994  102.4842 C.ar        1 LSW      -0.0687
     11 CAH        39.5808    8.5487  102.8869 C.ar        1 LSW      -0.0686
     12 CAI        37.2095    8.9464  103.2624 C.ar        1 LSW      -0.0686
     13 CAJ        41.8115    8.0308  112.9351 C.ar        1 LSW      -0.0768
     14 CAK        42.2491    9.1910  113.6135 C.ar        1 LSW      -0.0792
     15 CAL        39.8845    9.2416  104.0723 C.ar        1 LSW      -0.0603
     16 CAM        37.5138    9.6529  104.4442 C.ar        1 LSW      -0.0603
     17 CAN        41.1096    8.1412  111.7178 C.ar        1 LSW      -0.0443
     18 CAO        41.9855   10.4726  113.0848 C.ar        1 LSW      -0.0747
     19 CAP        40.2545   11.1346  109.9742 C.2         1 LSW       0.0166
     20 CAQ        43.3281   18.3413  105.0572 C.3         1 LSW      -0.0354
     21 CAR        43.5809   18.2244  106.5796 C.3         1 LSW      -0.0123
     22 CAS        43.6261   16.7720  107.1283 C.3         1 LSW      -0.0410
     23 CAT        39.2043   10.6269  106.0566 C.3         1 LSW      -0.0125
     24 CAU        42.3155   15.9687  106.9151 C.3         1 LSW       0.0081
     25 CAW        41.1448   13.0992  111.4381 C.3         1 LSW      -0.0013
     26 NAX        40.8761   14.2466  109.1808 N.am        1 LSW      -0.2657
     27 CBB        40.5446   15.5694  111.1313 C.2         1 LSW       0.0613
     28 CBC        42.1192   14.2484  108.7014 C.2         1 LSW       0.2263
     29 CBD        38.8555    9.8193  104.8587 C.ar        1 LSW      -0.0427
     30 CBE        40.9001   11.6740  111.0900 C.2         1 LSW      -0.0424
     31 CBF        40.8675    9.4225  111.1947 C.ar        1 LSW       0.0603
     32 CBG        41.2930   10.5764  111.8629 C.ar        1 LSW      -0.0214
     33 CBI        42.4053   14.4533  107.2850 C.3         1 LSW       0.0683
     34 CBJ        40.4559   14.1976  110.5596 C.3         1 LSW       0.0987
     35 OXT        42.6654   10.7133  107.6083 O.co2       1 LSW      -0.5643
     36 NXZ        40.2437    9.7937  110.0647 N.pl3       1 LSW      -0.2891
     37 H1         40.7359   14.2822  106.1050 H           1 LSW       0.2052
     38 H2         42.1159   13.6573  105.4445 H           1 LSW       0.2052
     39 H3         40.7320   12.2917  107.6442 H           1 LSW       0.1027
     40 H4         40.2554   11.9470  104.6426 H           1 LSW       0.0361
     41 H5         39.1602   12.7627  105.7487 H           1 LSW       0.0361
     42 H6         43.5228   19.6973  103.5486 H           1 LSW       0.1994
     43 H7         44.7871   19.7216  104.6391 H           1 LSW       0.1994
     44 H8         43.3216   20.4029  105.0478 H           1 LSW       0.1994
     45 H9         38.0261    7.9101  101.6118 H           1 LSW       0.0559
     46 H10        40.3391    8.1599  102.3129 H           1 LSW       0.0599
     47 H11        36.2370    8.8417  102.9631 H           1 LSW       0.0599
     48 H12        41.9975    7.1088  113.3333 H           1 LSW       0.0530
     49 H13        42.7601    9.0991  114.4932 H           1 LSW       0.0510
     50 H14        40.8650    9.3404  104.3534 H           1 LSW       0.0557
     51 H15        36.7489   10.0627  104.9848 H           1 LSW       0.0557
     52 H16        40.7951    7.3034  111.2182 H           1 LSW       0.0541
     53 H17        42.3012   11.3092  113.5787 H           1 LSW       0.0540
     54 H18        39.8455   11.6686  109.2025 H           1 LSW       0.0795
     55 H19        43.8728   17.5630  104.5219 H           1 LSW       0.0813
     56 H20        42.2622   18.2434  104.8350 H           1 LSW       0.0813
     57 H21        42.8020   18.7836  107.1044 H           1 LSW       0.0317
     58 H22        44.5439   18.6951  106.7989 H           1 LSW       0.0317
     59 H23        43.8380   16.8302  108.1979 H           1 LSW       0.0270
     60 H24        44.4614   16.2494  106.6532 H           1 LSW       0.0270
     61 H25        38.3077   10.8571  106.6376 H           1 LSW       0.0429
     62 H26        39.8424   10.0177  106.7047 H           1 LSW       0.0429
     63 H27        42.0569   16.0493  105.8586 H           1 LSW       0.0346
     64 H28        41.5033   16.4440  107.4768 H           1 LSW       0.0346
     65 H29        42.2270   13.2632  111.4190 H           1 LSW       0.0390
     66 H30        40.8015   13.2220  112.4739 H           1 LSW       0.0390
     67 H31        40.1572   14.3383  108.5291 H           1 LSW       0.1878
     68 H32        43.4303   14.1237  107.0997 H           1 LSW       0.1099
     69 H33        39.3801   13.9801  110.5505 H           1 LSW       0.0741
     70 H34        39.8496    9.1892  109.4119 H           1 LSW       0.2216
@<TRIPOS>BOND
     1     1     3  ar
     2     4     1   1
     3     1    35  ar
     4     2     4   1
     5    33     2   1
     6     4     5   1
     7     5    23   1
     8    20     6   1
     9    27     7  ar
    10    28     8   2
    11    27     9  ar
    12    11    10  ar
    13    12    10  ar
    14    15    11  ar
    15    16    12  ar
    16    14    13  ar
    17    13    17  ar
    18    18    14  ar
    19    29    15  ar
    20    29    16  ar
    21    17    31  ar
    22    32    18  ar
    23    30    19   2
    24    19    36   1
    25    21    20   1
    26    22    21   1
    27    24    22   1
    28    23    29   1
    29    33    24   1
    30    30    25   1
    31    25    34   1
    32    26    28  am
    33    34    26   1
    34    34    27   1
    35    28    33   1
    36    30    32   1
    37    31    32  ar
    38    31    36   1
    39     2    37   1
    40     2    38   1
    41     4    39   1
    42     5    40   1
    43     5    41   1
    44     6    42   1
    45     6    43   1
    46     6    44   1
    47    10    45   1
    48    11    46   1
    49    12    47   1
    50    13    48   1
    51    14    49   1
    52    15    50   1
    53    16    51   1
    54    17    52   1
    55    18    53   1
    56    19    54   1
    57    20    55   1
    58    20    56   1
    59    21    57   1
    60    21    58   1
    61    22    59   1
    62    22    60   1
    63    23    61   1
    64    23    62   1
    65    24    63   1
    66    24    64   1
    67    25    65   1
    68    25    66   1
    69    26    67   1
    70    33    68   1
    71    34    69   1
    72    36    70   1
@<TRIPOS>SUBSTRUCTURE
     1  LSW      1

