@<TRIPOS>MOLECULE
3l3n_ligand_042
    70    72
SMALL
GAST_HUCK
****
This file was generated by PARSER (from files_GN.cpp)

@<TRIPOS>ATOM
      1 C          44.7005    9.9272  109.7541 C.2         1 LSW       0.0847
      2 N          42.5634   10.6500  108.8651 N.4         1 LSW       0.2599
      3 O          45.6330    9.3546  108.9627 O.co2       1 LSW      -0.5643
      4 CA         43.9170   11.1042  109.2868 C.3         1 LSW       0.0340
      5 CB         43.7887   12.1841  110.4040 C.3         1 LSW       0.0122
      6 NAA        39.4946    6.2421  107.0201 N.4         1 LSW       0.2185
      7 OAC        40.4516   14.0640  107.1737 O.co2       1 LSW      -0.5665
      8 OAD        42.4591   10.7383  105.4989 O.2         1 LSW      -0.3908
      9 OAF        41.4228   13.9623  105.0689 O.co2       1 LSW      -0.5665
     10 CAG        45.4927   15.4947  114.0935 C.ar        1 LSW      -0.0687
     11 CAH        44.2299   14.9615  113.7817 C.ar        1 LSW      -0.0686
     12 CAI        46.5752   15.2886  113.2207 C.ar        1 LSW      -0.0686
     13 CAJ        36.2990    7.6413  107.9879 C.ar        1 LSW      -0.0768
     14 CAK        36.6935    8.7788  108.7254 C.ar        1 LSW      -0.0792
     15 CAL        44.0451   14.2310  112.5903 C.ar        1 LSW      -0.0603
     16 CAM        46.3939   14.5391  112.0430 C.ar        1 LSW      -0.0603
     17 CAN        36.4405    7.6152  106.5842 C.ar        1 LSW      -0.0443
     18 CAO        37.2152    9.9106  108.0666 C.ar        1 LSW      -0.0747
     19 CAP        37.6749   10.2228  104.4824 C.2         1 LSW       0.0166
     20 CAQ        39.2389    6.1445  108.4598 C.3         1 LSW      -0.0354
     21 CAR        40.0188    7.1518  109.3511 C.3         1 LSW      -0.0123
     22 CAS        40.4062    8.5068  108.6857 C.3         1 LSW      -0.0410
     23 CAT        44.9827   13.1852  110.4621 C.3         1 LSW      -0.0125
     24 CAU        41.7685    8.4570  107.9260 C.3         1 LSW       0.0081
     25 CAW        38.4762   12.1251  105.9974 C.3         1 LSW      -0.0013
     26 NAX        40.6366   11.1461  106.6902 N.am        1 LSW      -0.2657
     27 CBB        40.6231   13.4052  106.0047 C.2         1 LSW       0.0613
     28 CBC        41.8312   10.5803  106.5393 C.2         1 LSW       0.2263
     29 CBD        45.1316   13.9856  111.7154 C.ar        1 LSW      -0.0427
     30 CBE        37.8254   10.8173  105.7366 C.2         1 LSW      -0.0424
     31 CBF        36.9432    8.7583  105.9348 C.ar        1 LSW       0.0603
     32 CBG        37.3308    9.8921  106.6609 C.ar        1 LSW      -0.0214
     33 CBI        42.4503    9.8199  107.6236 C.3         1 LSW       0.0683
     34 CBJ        40.0160   12.0734  105.7865 C.3         1 LSW       0.0987
     35 OXT        44.2378    9.1753  110.7777 O.co2       1 LSW      -0.5643
     36 NXZ        37.1371    8.9984  104.6282 N.pl3       1 LSW      -0.2891
     37 H1         41.9817   11.4812  108.7418 H           1 LSW       0.2052
     38 H2         42.1764   10.1213  109.6493 H           1 LSW       0.2052
     39 H3         44.4082   11.5562  108.4235 H           1 LSW       0.1027
     40 H4         43.6775   11.6917  111.3771 H           1 LSW       0.0361
     41 H5         42.8759   12.7639  110.2372 H           1 LSW       0.0361
     42 H6         38.9135    5.5388  106.5704 H           1 LSW       0.1994
     43 H7         40.4855    6.0594  106.8145 H           1 LSW       0.1994
     44 H8         39.2353    7.1675  106.6671 H           1 LSW       0.1994
     45 H9         45.6165   16.0389  114.9509 H           1 LSW       0.0559
     46 H10        43.4433   15.1111  114.4148 H           1 LSW       0.0599
     47 H11        47.4927   15.6798  113.4413 H           1 LSW       0.0599
     48 H12        35.8863    6.8411  108.4762 H           1 LSW       0.0530
     49 H13        36.5871    8.7856  109.7428 H           1 LSW       0.0510
     50 H14        43.1120   13.8758  112.3810 H           1 LSW       0.0557
     51 H15        47.1996   14.3918  111.4262 H           1 LSW       0.0557
     52 H16        36.1755    6.7831  106.0565 H           1 LSW       0.0541
     53 H17        37.4919   10.7313  108.6006 H           1 LSW       0.0540
     54 H18        37.9572   10.6285  103.5921 H           1 LSW       0.0795
     55 H19        39.4857    5.1193  108.7624 H           1 LSW       0.0813
     56 H20        38.1625    6.2976  108.6056 H           1 LSW       0.0813
     57 H21        40.9115    6.6610  109.7446 H           1 LSW       0.0317
     58 H22        39.3871    7.3741  110.2153 H           1 LSW       0.0317
     59 H23        40.4688    9.2502  109.4832 H           1 LSW       0.0270
     60 H24        39.6178    8.8288  108.0006 H           1 LSW       0.0270
     61 H25        44.8925   13.8894  109.6277 H           1 LSW       0.0429
     62 H26        45.9015   12.6099  110.3019 H           1 LSW       0.0429
     63 H27        41.6440    7.9087  106.9881 H           1 LSW       0.0346
     64 H28        42.4753    7.8880  108.5352 H           1 LSW       0.0346
     65 H29        38.2622   12.4420  107.0210 H           1 LSW       0.0390
     66 H30        38.0385   12.8702  105.3279 H           1 LSW       0.0390
     67 H31        40.1738   10.9725  107.5220 H           1 LSW       0.1878
     68 H32        43.4556    9.5358  107.2955 H           1 LSW       0.1099
     69 H33        40.2051   11.7617  104.7538 H           1 LSW       0.0741
     70 H34        36.9452    8.3875  103.9008 H           1 LSW       0.2216
@<TRIPOS>BOND
     1     1     3  ar
     2     4     1   1
     3     1    35  ar
     4     2     4   1
     5    33     2   1
     6     4     5   1
     7     5    23   1
     8    20     6   1
     9    27     7  ar
    10    28     8   2
    11    27     9  ar
    12    11    10  ar
    13    12    10  ar
    14    15    11  ar
    15    16    12  ar
    16    14    13  ar
    17    13    17  ar
    18    18    14  ar
    19    29    15  ar
    20    29    16  ar
    21    17    31  ar
    22    32    18  ar
    23    30    19   2
    24    19    36   1
    25    21    20   1
    26    22    21   1
    27    24    22   1
    28    23    29   1
    29    33    24   1
    30    30    25   1
    31    25    34   1
    32    26    28  am
    33    34    26   1
    34    34    27   1
    35    28    33   1
    36    30    32   1
    37    31    32  ar
    38    31    36   1
    39     2    37   1
    40     2    38   1
    41     4    39   1
    42     5    40   1
    43     5    41   1
    44     6    42   1
    45     6    43   1
    46     6    44   1
    47    10    45   1
    48    11    46   1
    49    12    47   1
    50    13    48   1
    51    14    49   1
    52    15    50   1
    53    16    51   1
    54    17    52   1
    55    18    53   1
    56    19    54   1
    57    20    55   1
    58    20    56   1
    59    21    57   1
    60    21    58   1
    61    22    59   1
    62    22    60   1
    63    23    61   1
    64    23    62   1
    65    24    63   1
    66    24    64   1
    67    25    65   1
    68    25    66   1
    69    26    67   1
    70    33    68   1
    71    34    69   1
    72    36    70   1
@<TRIPOS>SUBSTRUCTURE
     1  LSW      1

