@<TRIPOS>MOLECULE
3l3n_ligand_029
    70    72
SMALL
GAST_HUCK
****
This file was generated by PARSER (from files_GN.cpp)

@<TRIPOS>ATOM
      1 C          47.2421   13.8272  111.0065 C.2         1 LSW       0.0847
      2 N          44.9871   14.5569  111.8393 N.4         1 LSW       0.2599
      3 O          48.4986   13.5290  111.4078 O.co2       1 LSW      -0.5643
      4 CA         46.4151   14.9279  111.5944 C.3         1 LSW       0.0340
      5 CB         47.0479   15.4571  112.9227 C.3         1 LSW       0.0122
      6 NAA        42.3562    9.2148  112.7511 N.4         1 LSW       0.2185
      7 OAC        42.4265   18.1158  109.4464 O.co2       1 LSW      -0.5665
      8 OAD        44.4481   13.7080  108.5433 O.2         1 LSW      -0.3908
      9 OAF        42.8824   18.4902  107.2154 O.co2       1 LSW      -0.5665
     10 CAG        48.1099   17.7787  117.3827 C.ar        1 LSW      -0.0687
     11 CAH        47.9143   18.7187  116.3602 C.ar        1 LSW      -0.0686
     12 CAI        47.7111   16.4443  117.1948 C.ar        1 LSW      -0.0686
     13 CAJ        37.7464   16.8426  109.2048 C.ar        1 LSW      -0.0768
     14 CAK        38.6968   17.7294  108.6765 C.ar        1 LSW      -0.0792
     15 CAL        47.3085   18.3358  115.1491 C.ar        1 LSW      -0.0603
     16 CAM        47.1188   16.0567  115.9765 C.ar        1 LSW      -0.0603
     17 CAN        37.9748   15.4505  109.1892 C.ar        1 LSW      -0.0443
     18 CAO        39.9002   17.2354  108.1331 C.ar        1 LSW      -0.0747
     19 CAP        40.8213   13.7303  107.9086 C.2         1 LSW       0.0166
     20 CAQ        41.4281   10.1989  113.3263 C.3         1 LSW      -0.0354
     21 CAR        41.4062   11.5302  112.5279 C.3         1 LSW      -0.0123
     22 CAS        42.8052   12.1796  112.3570 C.3         1 LSW      -0.0410
     23 CAT        46.2504   16.5647  113.6717 C.3         1 LSW      -0.0125
     24 CAU        42.8070   13.4068  111.3990 C.3         1 LSW       0.0081
     25 CAW        42.4924   15.4946  107.1011 C.3         1 LSW      -0.0013
     26 NAX        43.6186   15.6012  109.3568 N.am        1 LSW      -0.2657
     27 CBB        42.9389   17.6637  108.2815 C.2         1 LSW       0.0613
     28 CBC        44.1262   14.3806  109.5265 C.2         1 LSW       0.2263
     29 CBD        46.9078   16.9872  114.9364 C.ar        1 LSW      -0.0427
     30 CBE        41.2023   15.0563  107.6867 C.2         1 LSW      -0.0424
     31 CBF        39.1854   14.9674  108.6564 C.ar        1 LSW       0.0603
     32 CBG        40.1439   15.8448  108.1427 C.ar        1 LSW      -0.0214
     33 CBI        44.2231   13.7514  110.8374 C.3         1 LSW       0.0683
     34 CBJ        43.4186   16.2741  108.0954 C.3         1 LSW       0.0987
     35 OXT        46.8355   13.1982  109.8781 O.co2       1 LSW      -0.5643
     36 NXZ        39.6204   13.7096  108.5070 N.pl3       1 LSW      -0.2891
     37 H1         44.4605   15.4323  111.9732 H           1 LSW       0.2052
     38 H2         44.9755   14.0340  112.7190 H           1 LSW       0.2052
     39 H3         46.4208   15.7600  110.8828 H           1 LSW       0.1027
     40 H4         48.0359   15.8707  112.6932 H           1 LSW       0.0361
     41 H5         47.1941   14.6089  113.6053 H           1 LSW       0.0361
     42 H6         42.2107    8.3005  113.1936 H           1 LSW       0.1994
     43 H7         43.3207    9.5152  112.9176 H           1 LSW       0.1994
     44 H8         42.1868    9.1290  111.7479 H           1 LSW       0.1994
     45 H9         48.5423   18.0601  118.2683 H           1 LSW       0.0559
     46 H10        48.1922   19.6960  116.5029 H           1 LSW       0.0599
     47 H11        47.8266   15.7600  117.9447 H           1 LSW       0.0599
     48 H12        36.8771   17.2168  109.5910 H           1 LSW       0.0530
     49 H13        38.5173   18.7356  108.6675 H           1 LSW       0.0510
     50 H14        47.1502   19.0389  114.4279 H           1 LSW       0.0557
     51 H15        46.8292   15.0822  115.8624 H           1 LSW       0.0557
     52 H16        37.2726   14.8006  109.5432 H           1 LSW       0.0541
     53 H17        40.5633   17.8848  107.7090 H           1 LSW       0.0540
     54 H18        41.3696   12.9022  107.6749 H           1 LSW       0.0795
     55 H19        41.7118   10.3888  114.3638 H           1 LSW       0.0813
     56 H20        40.4272    9.7576  113.3216 H           1 LSW       0.0813
     57 H21        40.7529   12.2403  113.0458 H           1 LSW       0.0317
     58 H22        40.9666   11.3274  111.5451 H           1 LSW       0.0317
     59 H23        43.4751   11.4148  111.9511 H           1 LSW       0.0270
     60 H24        43.1812   12.4870  113.3380 H           1 LSW       0.0270
     61 H25        45.2554   16.1972  113.9311 H           1 LSW       0.0429
     62 H26        46.1172   17.4141  112.9979 H           1 LSW       0.0429
     63 H27        42.3977   14.2848  111.9119 H           1 LSW       0.0346
     64 H28        42.1427   13.1828  110.5568 H           1 LSW       0.0346
     65 H29        42.2796   16.0812  106.2036 H           1 LSW       0.0390
     66 H30        43.0218   14.6108  106.7466 H           1 LSW       0.0390
     67 H31        43.3848   16.0874  110.1681 H           1 LSW       0.1878
     68 H32        44.7434   12.7895  110.7299 H           1 LSW       0.1099
     69 H33        44.4004   16.3651  107.6234 H           1 LSW       0.0741
     70 H34        39.1515   12.9078  108.7647 H           1 LSW       0.2216
@<TRIPOS>BOND
     1     1     3  ar
     2     4     1   1
     3     1    35  ar
     4     2     4   1
     5    33     2   1
     6     4     5   1
     7     5    23   1
     8    20     6   1
     9    27     7  ar
    10    28     8   2
    11    27     9  ar
    12    11    10  ar
    13    12    10  ar
    14    15    11  ar
    15    16    12  ar
    16    14    13  ar
    17    13    17  ar
    18    18    14  ar
    19    29    15  ar
    20    29    16  ar
    21    17    31  ar
    22    32    18  ar
    23    30    19   2
    24    19    36   1
    25    21    20   1
    26    22    21   1
    27    24    22   1
    28    23    29   1
    29    33    24   1
    30    30    25   1
    31    25    34   1
    32    26    28  am
    33    34    26   1
    34    34    27   1
    35    28    33   1
    36    30    32   1
    37    31    32  ar
    38    31    36   1
    39     2    37   1
    40     2    38   1
    41     4    39   1
    42     5    40   1
    43     5    41   1
    44     6    42   1
    45     6    43   1
    46     6    44   1
    47    10    45   1
    48    11    46   1
    49    12    47   1
    50    13    48   1
    51    14    49   1
    52    15    50   1
    53    16    51   1
    54    17    52   1
    55    18    53   1
    56    19    54   1
    57    20    55   1
    58    20    56   1
    59    21    57   1
    60    21    58   1
    61    22    59   1
    62    22    60   1
    63    23    61   1
    64    23    62   1
    65    24    63   1
    66    24    64   1
    67    25    65   1
    68    25    66   1
    69    26    67   1
    70    33    68   1
    71    34    69   1
    72    36    70   1
@<TRIPOS>SUBSTRUCTURE
     1  LSW      1

