@<TRIPOS>MOLECULE
3l3n_ligand_059
    70    72
SMALL
GAST_HUCK
****
This file was generated by PARSER (from files_GN.cpp)

@<TRIPOS>ATOM
      1 C          41.2826   17.9557  111.1648 C.2         1 LSW       0.0847
      2 N          41.3547   16.2693  109.4896 N.4         1 LSW       0.2599
      3 O          40.9126   17.2897  112.2872 O.co2       1 LSW      -0.5643
      4 CA         40.7366   17.5754  109.8456 C.3         1 LSW       0.0340
      5 CB         39.1704   17.5422  109.8357 C.3         1 LSW       0.0122
      6 NAA        44.3674   19.7494  104.4170 N.4         1 LSW       0.2185
      7 OAC        41.1780   11.1774  107.9615 O.co2       1 LSW      -0.5665
      8 OAD        41.3888   13.5959  109.1681 O.2         1 LSW      -0.3908
      9 OAF        42.5075   10.2854  106.3054 O.co2       1 LSW      -0.5665
     10 CAG        40.2675   22.2864  108.4037 C.ar        1 LSW      -0.0687
     11 CAH        39.4736   21.4096  107.6389 C.ar        1 LSW      -0.0686
     12 CAI        40.4239   22.0674  109.7865 C.ar        1 LSW      -0.0686
     13 CAJ        42.5379   11.7616  113.1847 C.ar        1 LSW      -0.0768
     14 CAK        42.7435   10.7405  112.2314 C.ar        1 LSW      -0.0792
     15 CAL        38.8517   20.3092  108.2581 C.ar        1 LSW      -0.0603
     16 CAM        39.8000   20.9676  110.4016 C.ar        1 LSW      -0.0603
     17 CAN        42.8746   13.0992  112.8832 C.ar        1 LSW      -0.0443
     18 CAO        43.2851   11.0446  110.9645 C.ar        1 LSW      -0.0747
     19 CAP        44.1919   14.3619  109.8247 C.2         1 LSW       0.0166
     20 CAQ        44.3333   18.7034  105.4497 C.3         1 LSW      -0.0354
     21 CAR        42.9045   18.5028  105.9989 C.3         1 LSW      -0.0123
     22 CAS        42.8149   17.3900  107.0917 C.3         1 LSW      -0.0410
     23 CAT        38.4433   18.8484  110.2787 C.3         1 LSW      -0.0125
     24 CAU        41.4978   16.5727  106.9679 C.3         1 LSW       0.0081
     25 CAW        44.3042   12.4096  108.1800 C.3         1 LSW      -0.0013
     26 NAX        42.4149   13.7884  107.2166 N.am        1 LSW      -0.2657
     27 CBB        42.2411   11.3265  107.1302 C.2         1 LSW       0.0613
     28 CBC        41.6524   14.2875  108.1859 C.2         1 LSW       0.2263
     29 CBD        39.0167   20.0681  109.6455 C.ar        1 LSW      -0.0427
     30 CBE        44.0636   13.0063  109.5073 C.2         1 LSW      -0.0424
     31 CBF        43.4048   13.3924  111.6156 C.ar        1 LSW       0.0603
     32 CBG        43.5949   12.3859  110.6642 C.ar        1 LSW      -0.0214
     33 CBI        41.0951   15.6419  108.1613 C.3         1 LSW       0.0683
     34 CBJ        43.1218   12.5244  107.1565 C.3         1 LSW       0.0987
     35 OXT        42.2173   18.9291  111.2611 O.co2       1 LSW      -0.5643
     36 NXZ        43.7789   14.5633  111.0840 N.pl3       1 LSW      -0.2891
     37 H1         41.0483   15.5986  110.2113 H           1 LSW       0.2052
     38 H2         42.3660   16.3742  109.5855 H           1 LSW       0.2052
     39 H3         41.0761   18.3183  109.1225 H           1 LSW       0.1027
     40 H4         38.8290   16.7284  110.4777 H           1 LSW       0.0361
     41 H5         38.8344   17.3124  108.8208 H           1 LSW       0.0361
     42 H6         45.3129   19.8062  104.0301 H           1 LSW       0.1994
     43 H7         44.1093   20.6548  104.8237 H           1 LSW       0.1994
     44 H8         43.7158   19.5133  103.6636 H           1 LSW       0.1994
     45 H9         40.7277   23.0787  107.9598 H           1 LSW       0.0559
     46 H10        39.3595   21.5668  106.6406 H           1 LSW       0.0599
     47 H11        41.0047   22.6984  110.3383 H           1 LSW       0.0599
     48 H12        42.1417   11.5278  114.0971 H           1 LSW       0.0530
     49 H13        42.5101    9.7711  112.4651 H           1 LSW       0.0510
     50 H14        38.2922   19.6704  107.6834 H           1 LSW       0.0557
     51 H15        39.9517   20.8142  111.3982 H           1 LSW       0.0557
     52 H16        42.7287   13.8451  113.5693 H           1 LSW       0.0541
     53 H17        43.4467   10.3025  110.2834 H           1 LSW       0.0540
     54 H18        44.4984   15.0932  109.1828 H           1 LSW       0.0795
     55 H19        45.0238   18.9845  106.2496 H           1 LSW       0.0813
     56 H20        44.6751   17.7726  104.9949 H           1 LSW       0.0813
     57 H21        42.2552   18.2493  105.1559 H           1 LSW       0.0317
     58 H22        42.5565   19.4482  106.4295 H           1 LSW       0.0317
     59 H23        42.8792   17.8683  108.0759 H           1 LSW       0.0270
     60 H24        43.6637   16.7052  106.9909 H           1 LSW       0.0270
     61 H25        38.4877   18.9192  111.3694 H           1 LSW       0.0429
     62 H26        37.3831   18.7686  110.0182 H           1 LSW       0.0429
     63 H27        41.5614   15.9619  106.0659 H           1 LSW       0.0346
     64 H28        40.6679   17.2718  106.8111 H           1 LSW       0.0346
     65 H29        44.5870   11.3629  108.3120 H           1 LSW       0.0390
     66 H30        45.1767   12.9063  107.7481 H           1 LSW       0.0390
     67 H31        42.5418   14.3640  106.4423 H           1 LSW       0.1878
     68 H32        40.0138   15.4879  108.0781 H           1 LSW       0.1099
     69 H33        43.6019   12.5437  106.1729 H           1 LSW       0.0741
     70 H34        43.7251   15.4317  111.5245 H           1 LSW       0.2216
@<TRIPOS>BOND
     1     1     3  ar
     2     4     1   1
     3     1    35  ar
     4     2     4   1
     5    33     2   1
     6     4     5   1
     7     5    23   1
     8    20     6   1
     9    27     7  ar
    10    28     8   2
    11    27     9  ar
    12    11    10  ar
    13    12    10  ar
    14    15    11  ar
    15    16    12  ar
    16    14    13  ar
    17    13    17  ar
    18    18    14  ar
    19    29    15  ar
    20    29    16  ar
    21    17    31  ar
    22    32    18  ar
    23    30    19   2
    24    19    36   1
    25    21    20   1
    26    22    21   1
    27    24    22   1
    28    23    29   1
    29    33    24   1
    30    30    25   1
    31    25    34   1
    32    26    28  am
    33    34    26   1
    34    34    27   1
    35    28    33   1
    36    30    32   1
    37    31    32  ar
    38    31    36   1
    39     2    37   1
    40     2    38   1
    41     4    39   1
    42     5    40   1
    43     5    41   1
    44     6    42   1
    45     6    43   1
    46     6    44   1
    47    10    45   1
    48    11    46   1
    49    12    47   1
    50    13    48   1
    51    14    49   1
    52    15    50   1
    53    16    51   1
    54    17    52   1
    55    18    53   1
    56    19    54   1
    57    20    55   1
    58    20    56   1
    59    21    57   1
    60    21    58   1
    61    22    59   1
    62    22    60   1
    63    23    61   1
    64    23    62   1
    65    24    63   1
    66    24    64   1
    67    25    65   1
    68    25    66   1
    69    26    67   1
    70    33    68   1
    71    34    69   1
    72    36    70   1
@<TRIPOS>SUBSTRUCTURE
     1  LSW      1

