@<TRIPOS>MOLECULE
3l3n_ligand_065
    70    72
SMALL
GAST_HUCK
****
This file was generated by PARSER (from files_GN.cpp)

@<TRIPOS>ATOM
      1 C          44.0556   10.0775  109.0925 C.2         1 LSW       0.0847
      2 N          42.3096   11.8163  108.7724 N.4         1 LSW       0.2599
      3 O          45.2523    9.4841  108.8538 O.co2       1 LSW      -0.5643
      4 CA         43.6935   11.3596  108.4212 C.3         1 LSW       0.0340
      5 CB         44.7270   12.4906  108.7239 C.3         1 LSW       0.0122
      6 NAA        39.0556   16.7953  109.5998 N.4         1 LSW       0.2185
      7 OAC        42.0540    6.8208  105.0668 O.co2       1 LSW      -0.5665
      8 OAD        41.0227   10.8370  105.6737 O.2         1 LSW      -0.3908
      9 OAF        42.8833    8.9530  105.3280 O.co2       1 LSW      -0.5665
     10 CAG        46.0902   16.5759  111.6133 C.ar        1 LSW      -0.0687
     11 CAH        46.9076   15.4932  111.9986 C.ar        1 LSW      -0.0686
     12 CAI        45.0225   16.3699  110.7240 C.ar        1 LSW      -0.0686
     13 CAJ        36.3351   12.0862  106.0202 C.ar        1 LSW      -0.0768
     14 CAK        36.6927   11.4293  107.2187 C.ar        1 LSW      -0.0792
     15 CAL        46.6389   14.1958  111.5156 C.ar        1 LSW      -0.0603
     16 CAM        44.7321   15.0676  110.2734 C.ar        1 LSW      -0.0603
     17 CAN        36.8044   11.6075  104.7806 C.ar        1 LSW      -0.0443
     18 CAO        37.5181   10.2901  107.1910 C.ar        1 LSW      -0.0747
     19 CAP        38.9471    8.8122  104.2093 C.2         1 LSW       0.0166
     20 CAQ        40.3891   16.3475  109.1815 C.3         1 LSW      -0.0354
     21 CAR        40.3462   14.8943  108.6391 C.3         1 LSW      -0.0123
     22 CAS        41.5015   14.6011  107.6422 C.3         1 LSW      -0.0410
     23 CAT        45.1328   12.5914  110.2298 C.3         1 LSW      -0.0125
     24 CAU        41.3860   13.2498  106.8806 C.3         1 LSW       0.0081
     25 CAW        39.5463    7.8457  106.5157 C.3         1 LSW      -0.0013
     26 NAX        41.1225    9.5213  107.4501 N.am        1 LSW      -0.2657
     27 CBB        41.9388    8.0345  105.6519 C.2         1 LSW       0.0613
     28 CBC        41.1182   10.7281  106.8924 C.2         1 LSW       0.2263
     29 CBD        45.5294   13.9643  110.6565 C.ar        1 LSW      -0.0427
     30 CBE        38.8322    8.7677  105.6012 C.2         1 LSW      -0.0424
     31 CBF        37.6225   10.4613  104.7630 C.ar        1 LSW       0.0603
     32 CBG        37.9748    9.8112  105.9478 C.ar        1 LSW      -0.0214
     33 CBI        41.2498   11.9299  107.7234 C.3         1 LSW       0.0683
     34 CBJ        41.0298    8.2308  106.8110 C.3         1 LSW       0.0987
     35 OXT        43.2452    9.4961  110.0094 O.co2       1 LSW      -0.5643
     36 NXZ        38.2208    9.8390  103.7387 N.pl3       1 LSW      -0.2891
     37 H1         42.3871   12.7332  109.2215 H           1 LSW       0.2052
     38 H2         41.9502   11.1770  109.4865 H           1 LSW       0.2052
     39 H3         43.7384   11.1879  107.3431 H           1 LSW       0.1027
     40 H4         44.3006   13.4488  108.3987 H           1 LSW       0.0361
     41 H5         45.6347   12.3107  108.1286 H           1 LSW       0.0361
     42 H6         39.1181   17.7527  109.9567 H           1 LSW       0.1994
     43 H7         38.6814   16.1875  110.3306 H           1 LSW       0.1994
     44 H8         38.4211   16.7813  108.7962 H           1 LSW       0.1994
     45 H9         46.2537   17.5125  111.9933 H           1 LSW       0.0559
     46 H10        47.6919   15.6478  112.6386 H           1 LSW       0.0599
     47 H11        44.4402   17.1568  110.4280 H           1 LSW       0.0599
     48 H12        35.7439   12.9163  106.0538 H           1 LSW       0.0530
     49 H13        36.3551   11.7869  108.1150 H           1 LSW       0.0510
     50 H14        47.2338   13.4205  111.8162 H           1 LSW       0.0557
     51 H15        43.9258   14.9166  109.6571 H           1 LSW       0.0557
     52 H16        36.5618   12.0820  103.9081 H           1 LSW       0.0541
     53 H17        37.7821    9.8271  108.0658 H           1 LSW       0.0540
     54 H18        39.5259    8.1945  103.6352 H           1 LSW       0.0795
     55 H19        41.0701   16.4049  110.0356 H           1 LSW       0.0813
     56 H20        40.7429   17.0343  108.4069 H           1 LSW       0.0813
     57 H21        39.3951   14.7258  108.1263 H           1 LSW       0.0317
     58 H22        40.4061   14.2086  109.4919 H           1 LSW       0.0317
     59 H23        42.4560   14.6252  108.1760 H           1 LSW       0.0270
     60 H24        41.5240   15.3974  106.8941 H           1 LSW       0.0270
     61 H25        45.9395   11.8706  110.4200 H           1 LSW       0.0429
     62 H26        44.2967   12.2997  110.8746 H           1 LSW       0.0429
     63 H27        42.2774   13.1677  106.2433 H           1 LSW       0.0346
     64 H28        40.5187   13.3312  106.2146 H           1 LSW       0.0346
     65 H29        39.4899    6.8319  106.1080 H           1 LSW       0.0390
     66 H30        39.0073    7.8144  107.4708 H           1 LSW       0.0390
     67 H31        41.2398    9.5013  108.4187 H           1 LSW       0.1878
     68 H32        40.3086   12.0129  108.2703 H           1 LSW       0.1099
     69 H33        41.3750    7.5132  107.5510 H           1 LSW       0.0741
     70 H34        38.1565   10.1008  102.8046 H           1 LSW       0.2216
@<TRIPOS>BOND
     1     1     3  ar
     2     4     1   1
     3     1    35  ar
     4     2     4   1
     5    33     2   1
     6     4     5   1
     7     5    23   1
     8    20     6   1
     9    27     7  ar
    10    28     8   2
    11    27     9  ar
    12    11    10  ar
    13    12    10  ar
    14    15    11  ar
    15    16    12  ar
    16    14    13  ar
    17    13    17  ar
    18    18    14  ar
    19    29    15  ar
    20    29    16  ar
    21    17    31  ar
    22    32    18  ar
    23    30    19   2
    24    19    36   1
    25    21    20   1
    26    22    21   1
    27    24    22   1
    28    23    29   1
    29    33    24   1
    30    30    25   1
    31    25    34   1
    32    26    28  am
    33    34    26   1
    34    34    27   1
    35    28    33   1
    36    30    32   1
    37    31    32  ar
    38    31    36   1
    39     2    37   1
    40     2    38   1
    41     4    39   1
    42     5    40   1
    43     5    41   1
    44     6    42   1
    45     6    43   1
    46     6    44   1
    47    10    45   1
    48    11    46   1
    49    12    47   1
    50    13    48   1
    51    14    49   1
    52    15    50   1
    53    16    51   1
    54    17    52   1
    55    18    53   1
    56    19    54   1
    57    20    55   1
    58    20    56   1
    59    21    57   1
    60    21    58   1
    61    22    59   1
    62    22    60   1
    63    23    61   1
    64    23    62   1
    65    24    63   1
    66    24    64   1
    67    25    65   1
    68    25    66   1
    69    26    67   1
    70    33    68   1
    71    34    69   1
    72    36    70   1
@<TRIPOS>SUBSTRUCTURE
     1  LSW      1

