@<TRIPOS>MOLECULE
3l3n_ligand_060
    70    72
SMALL
GAST_HUCK
****
This file was generated by PARSER (from files_GN.cpp)

@<TRIPOS>ATOM
      1 C          44.6968   13.6095  111.1715 C.2         1 LSW       0.0847
      2 N          45.0065   15.9714  110.4028 N.4         1 LSW       0.2599
      3 O          44.6389   12.5233  110.3700 O.co2       1 LSW      -0.5643
      4 CA         45.6483   14.7101  110.8804 C.3         1 LSW       0.0340
      5 CB         46.5804   14.9930  112.1072 C.3         1 LSW       0.0122
      6 NAA        42.6882   19.3518  104.8278 N.4         1 LSW       0.2185
      7 OAC        40.8612   14.1020  113.1590 O.co2       1 LSW      -0.5665
      8 OAD        42.4817   14.3131  109.0086 O.2         1 LSW      -0.3908
      9 OAF        41.0556   12.9088  111.1804 O.co2       1 LSW      -0.5665
     10 CAG        47.7167   16.1630  117.2023 C.ar        1 LSW      -0.0687
     11 CAH        48.0452   15.0612  116.3945 C.ar        1 LSW      -0.0686
     12 CAI        46.8462   17.1512  116.7150 C.ar        1 LSW      -0.0686
     13 CAJ        39.9811   20.0441  107.3496 C.ar        1 LSW      -0.0768
     14 CAK        41.0762   19.3678  107.9322 C.ar        1 LSW      -0.0792
     15 CAL        47.5085   14.9457  115.0987 C.ar        1 LSW      -0.0603
     16 CAM        46.3066   17.0330  115.4232 C.ar        1 LSW      -0.0603
     17 CAN        38.6747   19.5399  107.5108 C.ar        1 LSW      -0.0443
     18 CAO        40.8770   18.1800  108.6548 C.ar        1 LSW      -0.0747
     19 CAP        37.6669   16.6120  109.2427 C.2         1 LSW       0.0166
     20 CAQ        43.8108   18.4343  105.0826 C.3         1 LSW      -0.0354
     21 CAR        43.6425   17.6312  106.3942 C.3         1 LSW      -0.0123
     22 CAS        44.9192   16.8776  106.8610 C.3         1 LSW      -0.0410
     23 CAT        45.9439   15.8294  113.2623 C.3         1 LSW      -0.0125
     24 CAU        44.6716   15.6855  107.8423 C.3         1 LSW       0.0081
     25 CAW        39.6799   15.2500  109.9180 C.3         1 LSW      -0.0013
     26 NAX        42.0539   15.8140  110.5838 N.am        1 LSW      -0.2657
     27 CBB        40.9132   14.0991  111.8049 C.2         1 LSW       0.0613
     28 CBC        42.8035   15.3380  109.5913 C.2         1 LSW       0.2263
     29 CBD        46.6362   15.9385  114.5806 C.ar        1 LSW      -0.0427
     30 CBE        39.0533   16.4991  109.3996 C.2         1 LSW      -0.0424
     31 CBF        38.5019   18.3640  108.2647 C.ar        1 LSW       0.0603
     32 CBG        39.5787   17.6541  108.8085 C.ar        1 LSW      -0.0214
     33 CBI        44.0542   16.0248  109.2535 C.3         1 LSW       0.0683
     34 CBJ        40.7659   15.3639  111.0378 C.3         1 LSW       0.0987
     35 OXT        43.8474   13.6539  112.2228 O.co2       1 LSW      -0.5643
     36 NXZ        37.3715   17.7216  108.5647 N.pl3       1 LSW      -0.2891
     37 H1         45.7665   16.6176  110.1819 H           1 LSW       0.2052
     38 H2         44.5008   16.3673  111.1966 H           1 LSW       0.2052
     39 H3         46.3010   14.3516  110.0852 H           1 LSW       0.1027
     40 H4         47.4630   15.5384  111.7566 H           1 LSW       0.0361
     41 H5         46.9378   14.0307  112.4811 H           1 LSW       0.0361
     42 H6         42.6614   19.5814  103.8327 H           1 LSW       0.1994
     43 H7         42.8197   20.2177  105.3679 H           1 LSW       0.1994
     44 H8         41.8058   18.9083  105.0984 H           1 LSW       0.1994
     45 H9         48.0923   16.2412  118.1473 H           1 LSW       0.0559
     46 H10        48.6692   14.3369  116.7555 H           1 LSW       0.0599
     47 H11        46.5984   17.9495  117.3034 H           1 LSW       0.0599
     48 H12        40.1402   20.8923  106.8014 H           1 LSW       0.0530
     49 H13        42.0328   19.7213  107.7944 H           1 LSW       0.0510
     50 H14        47.7505   14.1164  114.5563 H           1 LSW       0.0557
     51 H15        45.6573   17.7553  115.1047 H           1 LSW       0.0557
     52 H16        37.8782   20.0066  107.0722 H           1 LSW       0.0541
     53 H17        41.6773   17.7084  109.0743 H           1 LSW       0.0540
     54 H18        36.9870   15.9213  109.5457 H           1 LSW       0.0795
     55 H19        44.7242   19.0276  105.1051 H           1 LSW       0.0813
     56 H20        43.8715   17.7411  104.2417 H           1 LSW       0.0813
     57 H21        42.8352   16.9116  106.2394 H           1 LSW       0.0317
     58 H22        43.3250   18.3347  107.1847 H           1 LSW       0.0317
     59 H23        45.6090   17.5839  107.3199 H           1 LSW       0.0270
     60 H24        45.4213   16.4696  105.9802 H           1 LSW       0.0270
     61 H25        44.9445   15.4530  113.4805 H           1 LSW       0.0429
     62 H26        45.8214   16.8417  112.8643 H           1 LSW       0.0429
     63 H27        45.6250   15.1896  107.9921 H           1 LSW       0.0346
     64 H28        44.0522   14.9721  107.3012 H           1 LSW       0.0346
     65 H29        40.0839   14.7134  109.0580 H           1 LSW       0.0390
     66 H30        38.8769   14.6179  110.3130 H           1 LSW       0.0390
     67 H31        42.4192   16.5745  111.0635 H           1 LSW       0.1878
     68 H32        43.7952   17.0817  109.2056 H           1 LSW       0.1099
     69 H33        40.4158   16.1206  111.7474 H           1 LSW       0.0741
     70 H34        36.4844   17.9987  108.3164 H           1 LSW       0.2216
@<TRIPOS>BOND
     1     1     3  ar
     2     4     1   1
     3     1    35  ar
     4     2     4   1
     5    33     2   1
     6     4     5   1
     7     5    23   1
     8    20     6   1
     9    27     7  ar
    10    28     8   2
    11    27     9  ar
    12    11    10  ar
    13    12    10  ar
    14    15    11  ar
    15    16    12  ar
    16    14    13  ar
    17    13    17  ar
    18    18    14  ar
    19    29    15  ar
    20    29    16  ar
    21    17    31  ar
    22    32    18  ar
    23    30    19   2
    24    19    36   1
    25    21    20   1
    26    22    21   1
    27    24    22   1
    28    23    29   1
    29    33    24   1
    30    30    25   1
    31    25    34   1
    32    26    28  am
    33    34    26   1
    34    34    27   1
    35    28    33   1
    36    30    32   1
    37    31    32  ar
    38    31    36   1
    39     2    37   1
    40     2    38   1
    41     4    39   1
    42     5    40   1
    43     5    41   1
    44     6    42   1
    45     6    43   1
    46     6    44   1
    47    10    45   1
    48    11    46   1
    49    12    47   1
    50    13    48   1
    51    14    49   1
    52    15    50   1
    53    16    51   1
    54    17    52   1
    55    18    53   1
    56    19    54   1
    57    20    55   1
    58    20    56   1
    59    21    57   1
    60    21    58   1
    61    22    59   1
    62    22    60   1
    63    23    61   1
    64    23    62   1
    65    24    63   1
    66    24    64   1
    67    25    65   1
    68    25    66   1
    69    26    67   1
    70    33    68   1
    71    34    69   1
    72    36    70   1
@<TRIPOS>SUBSTRUCTURE
     1  LSW      1

