@<TRIPOS>MOLECULE
3l3n_ligand_015
    70    72
SMALL
GAST_HUCK
****
This file was generated by PARSER (from files_GN.cpp)

@<TRIPOS>ATOM
      1 C          46.6334   13.5692  110.4444 C.2         1 LSW       0.0847
      2 N          44.6159   14.4611  111.6238 N.4         1 LSW       0.2599
      3 O          47.9139   13.1838  110.6795 O.co2       1 LSW      -0.5643
      4 CA         46.0001   14.7285  111.1380 C.3         1 LSW       0.0340
      5 CB         46.8635   15.2243  112.3526 C.3         1 LSW       0.0122
      6 NAA        38.9608   15.5585  114.0361 N.4         1 LSW       0.2185
      7 OAC        40.3710   15.9106  108.0100 O.co2       1 LSW      -0.5665
      8 OAD        43.6182   15.2797  109.1544 O.2         1 LSW      -0.3908
      9 OAF        39.4661   13.8971  108.7417 O.co2       1 LSW      -0.5665
     10 CAG        48.4113   17.2006  116.8934 C.ar        1 LSW      -0.0687
     11 CAH        48.0070   18.2340  116.0296 C.ar        1 LSW      -0.0686
     12 CAI        48.0943   15.8646  116.5816 C.ar        1 LSW      -0.0686
     13 CAJ        37.1733    9.8064  108.4791 C.ar        1 LSW      -0.0768
     14 CAK        37.1197   11.0360  107.7864 C.ar        1 LSW      -0.0792
     15 CAL        47.2862   17.9345  114.8587 C.ar        1 LSW      -0.0603
     16 CAM        47.3826   15.5671  115.4032 C.ar        1 LSW      -0.0603
     17 CAN        38.4165    9.1877  108.7430 C.ar        1 LSW      -0.0443
     18 CAO        38.3055   11.6622  107.3475 C.ar        1 LSW      -0.0747
     19 CAP        41.6536   10.3819  107.8590 C.2         1 LSW       0.0166
     20 CAQ        40.1811   14.7506  114.1810 C.3         1 LSW      -0.0354
     21 CAR        41.3626   15.3773  113.4000 C.3         1 LSW      -0.0123
     22 CAS        41.4883   14.8676  111.9363 C.3         1 LSW      -0.0410
     23 CAT        46.1878   16.2703  113.2901 C.3         1 LSW      -0.0125
     24 CAU        42.3285   13.5495  111.7721 C.3         1 LSW       0.0081
     25 CAW        41.3636   12.6491  106.6870 C.3         1 LSW      -0.0013
     26 NAX        42.3871   13.4449  108.8119 N.am        1 LSW      -0.2657
     27 CBB        40.4441   14.5621  108.0783 C.2         1 LSW       0.0613
     28 CBC        43.2296   14.1799  109.5368 C.2         1 LSW       0.2263
     29 CBD        46.9786   16.5956  114.5148 C.ar        1 LSW      -0.0427
     30 CBE        40.8603   11.4168  107.3503 C.2         1 LSW      -0.0424
     31 CBF        39.5883    9.8181  108.2904 C.ar        1 LSW       0.0603
     32 CBG        39.5409   11.0399  107.6093 C.ar        1 LSW      -0.0214
     33 CBI        43.5985   13.6736  110.8624 C.3         1 LSW       0.0683
     34 CBJ        41.6710   13.8552  107.6363 C.3         1 LSW       0.0987
     35 OXT        46.0219   13.0073  109.3798 O.co2       1 LSW      -0.5643
     36 NXZ        40.8687    9.4471  108.4246 N.pl3       1 LSW      -0.2891
     37 H1         44.1919   15.3803  111.8082 H           1 LSW       0.2052
     38 H2         44.7264   13.9851  112.5248 H           1 LSW       0.2052
     39 H3         45.9427   15.5543  110.4175 H           1 LSW       0.1027
     40 H4         47.7926   15.6598  111.9649 H           1 LSW       0.0361
     41 H5         47.1291   14.3527  112.9622 H           1 LSW       0.0361
     42 H6         38.1933   15.0950  114.5251 H           1 LSW       0.1994
     43 H7         38.7038   15.6808  113.0524 H           1 LSW       0.1994
     44 H8         39.1180   16.4808  114.4544 H           1 LSW       0.1994
     45 H9         48.9133   17.4181  117.7568 H           1 LSW       0.0559
     46 H10        48.2308   19.2036  116.2589 H           1 LSW       0.0599
     47 H11        48.3750   15.1094  117.2131 H           1 LSW       0.0599
     48 H12        36.3109    9.3641  108.8080 H           1 LSW       0.0530
     49 H13        36.2174   11.4817  107.6151 H           1 LSW       0.0510
     50 H14        46.9730   18.7049  114.2642 H           1 LSW       0.0557
     51 H15        47.1523   14.5884  115.2045 H           1 LSW       0.0557
     52 H16        38.4624    8.2992  109.2501 H           1 LSW       0.0541
     53 H17        38.2639   12.5515  106.8473 H           1 LSW       0.0540
     54 H18        42.6753   10.3451  107.8377 H           1 LSW       0.0795
     55 H19        39.9841   13.7303  113.8355 H           1 LSW       0.0813
     56 H20        40.4336   14.7075  115.2443 H           1 LSW       0.0813
     57 H21        42.2968   15.1762  113.9357 H           1 LSW       0.0317
     58 H22        41.2207   16.4640  113.3843 H           1 LSW       0.0317
     59 H23        41.9366   15.6749  111.3464 H           1 LSW       0.0270
     60 H24        40.4868   14.7109  111.5198 H           1 LSW       0.0270
     61 H25        45.2243   15.8863  113.6330 H           1 LSW       0.0429
     62 H26        45.9884   17.1699  112.7055 H           1 LSW       0.0429
     63 H27        41.6731   12.7715  111.3612 H           1 LSW       0.0346
     64 H28        42.6449   13.1790  112.7538 H           1 LSW       0.0346
     65 H29        40.6420   12.9589  105.9239 H           1 LSW       0.0390
     66 H30        42.2813   12.3845  106.1533 H           1 LSW       0.0390
     67 H31        42.0914   12.6087  109.2191 H           1 LSW       0.1878
     68 H32        44.0093   12.6658  110.7435 H           1 LSW       0.1099
     69 H33        42.2840   14.5569  107.0597 H           1 LSW       0.0741
     70 H34        41.1793    8.6358  108.8586 H           1 LSW       0.2216
@<TRIPOS>BOND
     1     1     3  ar
     2     4     1   1
     3     1    35  ar
     4     2     4   1
     5    33     2   1
     6     4     5   1
     7     5    23   1
     8    20     6   1
     9    27     7  ar
    10    28     8   2
    11    27     9  ar
    12    11    10  ar
    13    12    10  ar
    14    15    11  ar
    15    16    12  ar
    16    14    13  ar
    17    13    17  ar
    18    18    14  ar
    19    29    15  ar
    20    29    16  ar
    21    17    31  ar
    22    32    18  ar
    23    30    19   2
    24    19    36   1
    25    21    20   1
    26    22    21   1
    27    24    22   1
    28    23    29   1
    29    33    24   1
    30    30    25   1
    31    25    34   1
    32    26    28  am
    33    34    26   1
    34    34    27   1
    35    28    33   1
    36    30    32   1
    37    31    32  ar
    38    31    36   1
    39     2    37   1
    40     2    38   1
    41     4    39   1
    42     5    40   1
    43     5    41   1
    44     6    42   1
    45     6    43   1
    46     6    44   1
    47    10    45   1
    48    11    46   1
    49    12    47   1
    50    13    48   1
    51    14    49   1
    52    15    50   1
    53    16    51   1
    54    17    52   1
    55    18    53   1
    56    19    54   1
    57    20    55   1
    58    20    56   1
    59    21    57   1
    60    21    58   1
    61    22    59   1
    62    22    60   1
    63    23    61   1
    64    23    62   1
    65    24    63   1
    66    24    64   1
    67    25    65   1
    68    25    66   1
    69    26    67   1
    70    33    68   1
    71    34    69   1
    72    36    70   1
@<TRIPOS>SUBSTRUCTURE
     1  LSW      1

