@<TRIPOS>MOLECULE
3l3n_ligand_011
    70    72
SMALL
GAST_HUCK
****
This file was generated by PARSER (from files_GN.cpp)

@<TRIPOS>ATOM
      1 C          45.1710   13.0723  110.0642 C.2         1 LSW       0.0847
      2 N          43.8619   15.1571  110.2244 N.4         1 LSW       0.2599
      3 O          46.5056   13.0998  110.3019 O.co2       1 LSW      -0.5643
      4 CA         44.2387   13.8723  110.9157 C.3         1 LSW       0.0340
      5 CB         43.0793   12.9714  111.4958 C.3         1 LSW       0.0122
      6 NAA        44.3434   19.5753  105.2455 N.4         1 LSW       0.2185
      7 OAC        43.3542   12.0810  105.0448 O.co2       1 LSW      -0.5665
      8 OAD        44.0038   14.2035  107.3456 O.2         1 LSW      -0.3908
      9 OAF        41.0845   12.4661  105.2825 O.co2       1 LSW      -0.5665
     10 CAG        39.2072   15.3595  114.2042 C.ar        1 LSW      -0.0687
     11 CAH        39.0834   14.2850  113.3073 C.ar        1 LSW      -0.0686
     12 CAI        40.4756   15.7488  114.6592 C.ar        1 LSW      -0.0686
     13 CAJ        37.6530    9.0847  104.3730 C.ar        1 LSW      -0.0768
     14 CAK        37.4507    9.9853  105.4416 C.ar        1 LSW      -0.0792
     15 CAL        40.2304   13.5881  112.8700 C.ar        1 LSW      -0.0603
     16 CAM        41.6239   15.0503  114.2277 C.ar        1 LSW      -0.0603
     17 CAN        38.9066    8.4637  104.1877 C.ar        1 LSW      -0.0443
     18 CAO        38.5167   10.3068  106.3135 C.ar        1 LSW      -0.0747
     19 CAP        41.8752    8.9647  106.1095 C.2         1 LSW       0.0166
     20 CAQ        43.3466   18.5242  105.0214 C.3         1 LSW      -0.0354
     21 CAR        42.5964   18.1188  106.3149 C.3         1 LSW      -0.0123
     22 CAS        43.0798   16.7666  106.9116 C.3         1 LSW      -0.0410
     23 CAT        42.7183   13.1364  113.0115 C.3         1 LSW      -0.0125
     24 CAU        42.7639   16.6173  108.4333 C.3         1 LSW       0.0081
     25 CAW        41.3661   10.8301  107.7869 C.3         1 LSW      -0.0013
     26 NAX        42.2577   13.0731  108.1181 N.am        1 LSW      -0.2657
     27 CBB        42.2860   12.2321  105.8614 C.2         1 LSW       0.0613
     28 CBC        43.0622   14.1281  108.1268 C.2         1 LSW       0.2263
     29 CBD        41.5159   13.9634  113.3334 C.ar        1 LSW      -0.0427
     30 CBE        40.9996    9.8443  106.7481 C.2         1 LSW      -0.0424
     31 CBF        39.9532    8.7734  105.0762 C.ar        1 LSW       0.0603
     32 CBG        39.7711    9.6991  106.1084 C.ar        1 LSW      -0.0214
     33 CBI        42.8672   15.1996  109.1047 C.3         1 LSW       0.0683
     34 CBJ        42.3973   11.8970  107.3040 C.3         1 LSW       0.0987
     35 OXT        44.7300   12.0432  109.3030 O.co2       1 LSW      -0.5643
     36 NXZ        41.2228    8.3365  105.1158 N.pl3       1 LSW      -0.2891
     37 H1         44.7290   15.5748  109.8696 H           1 LSW       0.2052
     38 H2         43.5020   15.7784  110.9571 H           1 LSW       0.2052
     39 H3         44.8442   14.1947  111.7649 H           1 LSW       0.1027
     40 H4         43.3537   11.9096  111.3723 H           1 LSW       0.0361
     41 H5         42.1741   13.0914  110.8931 H           1 LSW       0.0361
     42 H6         44.9667   19.6284  104.4402 H           1 LSW       0.1994
     43 H7         44.8860   19.3740  106.0860 H           1 LSW       0.1994
     44 H8         43.8619   20.4667  105.3464 H           1 LSW       0.1994
     45 H9         38.3767   15.8583  114.5291 H           1 LSW       0.0559
     46 H10        38.1574   14.0018  112.9788 H           1 LSW       0.0599
     47 H11        40.5711   16.5149  115.3243 H           1 LSW       0.0599
     48 H12        36.8817    8.8802  103.7340 H           1 LSW       0.0530
     49 H13        36.5327   10.4142  105.5853 H           1 LSW       0.0510
     50 H14        40.1077   12.7854  112.2535 H           1 LSW       0.0557
     51 H15        42.5348   15.3193  114.6024 H           1 LSW       0.0557
     52 H16        39.0468    7.8112  103.4201 H           1 LSW       0.0541
     53 H17        38.3651   10.9607  107.0819 H           1 LSW       0.0540
     54 H18        42.8630    8.8496  106.3245 H           1 LSW       0.0795
     55 H19        43.8402   17.6540  104.5826 H           1 LSW       0.0813
     56 H20        42.6283   18.9028  104.2860 H           1 LSW       0.0813
     57 H21        41.5344   18.0257  106.0703 H           1 LSW       0.0317
     58 H22        42.6960   18.9114  107.0595 H           1 LSW       0.0317
     59 H23        44.1560   16.6345  106.7540 H           1 LSW       0.0270
     60 H24        42.5567   15.9847  106.3660 H           1 LSW       0.0270
     61 H25        43.6019   13.5074  113.5374 H           1 LSW       0.0429
     62 H26        42.5193   12.1386  113.4168 H           1 LSW       0.0429
     63 H27        41.7343   16.9548  108.5962 H           1 LSW       0.0346
     64 H28        43.4188   17.3045  108.9859 H           1 LSW       0.0346
     65 H29        41.7817   10.2832  108.6434 H           1 LSW       0.0390
     66 H30        40.4655   11.3410  108.1444 H           1 LSW       0.0390
     67 H31        41.5384   13.0673  108.7713 H           1 LSW       0.1878
     68 H32        41.8945   15.0675  109.5935 H           1 LSW       0.1099
     69 H33        43.3923   11.4893  107.4829 H           1 LSW       0.0741
     70 H34        41.6215    7.6890  104.5102 H           1 LSW       0.2216
@<TRIPOS>BOND
     1     1     3  ar
     2     4     1   1
     3     1    35  ar
     4     2     4   1
     5    33     2   1
     6     4     5   1
     7     5    23   1
     8    20     6   1
     9    27     7  ar
    10    28     8   2
    11    27     9  ar
    12    11    10  ar
    13    12    10  ar
    14    15    11  ar
    15    16    12  ar
    16    14    13  ar
    17    13    17  ar
    18    18    14  ar
    19    29    15  ar
    20    29    16  ar
    21    17    31  ar
    22    32    18  ar
    23    30    19   2
    24    19    36   1
    25    21    20   1
    26    22    21   1
    27    24    22   1
    28    23    29   1
    29    33    24   1
    30    30    25   1
    31    25    34   1
    32    26    28  am
    33    34    26   1
    34    34    27   1
    35    28    33   1
    36    30    32   1
    37    31    32  ar
    38    31    36   1
    39     2    37   1
    40     2    38   1
    41     4    39   1
    42     5    40   1
    43     5    41   1
    44     6    42   1
    45     6    43   1
    46     6    44   1
    47    10    45   1
    48    11    46   1
    49    12    47   1
    50    13    48   1
    51    14    49   1
    52    15    50   1
    53    16    51   1
    54    17    52   1
    55    18    53   1
    56    19    54   1
    57    20    55   1
    58    20    56   1
    59    21    57   1
    60    21    58   1
    61    22    59   1
    62    22    60   1
    63    23    61   1
    64    23    62   1
    65    24    63   1
    66    24    64   1
    67    25    65   1
    68    25    66   1
    69    26    67   1
    70    33    68   1
    71    34    69   1
    72    36    70   1
@<TRIPOS>SUBSTRUCTURE
     1  LSW      1

