@<TRIPOS>MOLECULE
3l3n_ligand_046
    70    72
SMALL
GAST_HUCK
****
This file was generated by PARSER (from files_GN.cpp)

@<TRIPOS>ATOM
      1 C          41.9078   11.1124  105.4436 C.2         1 LSW       0.0847
      2 N          41.8109   10.9712  107.8718 N.4         1 LSW       0.2599
      3 O          42.9648   10.9536  104.6112 O.co2       1 LSW      -0.5643
      4 CA         41.7268   10.1957  106.5996 C.3         1 LSW       0.0340
      5 CB         40.3321    9.4930  106.5277 C.3         1 LSW       0.0122
      6 NAA        40.1329   13.6869  107.3027 N.4         1 LSW       0.2185
      7 OAC        43.8472    6.3819  108.0437 O.co2       1 LSW      -0.5665
      8 OAD        44.9156    9.6227  108.7187 O.2         1 LSW      -0.3908
      9 OAF        45.5879    6.7367  109.5397 O.co2       1 LSW      -0.5665
     10 CAG        36.5716    8.8481  102.9023 C.ar        1 LSW      -0.0687
     11 CAH        36.5231    9.1790  104.2672 C.ar        1 LSW      -0.0686
     12 CAI        37.7772    8.4026  102.3372 C.ar        1 LSW      -0.0686
     13 CAJ        37.4787    7.6164  108.0624 C.ar        1 LSW      -0.0768
     14 CAK        38.5250    6.7750  107.6210 C.ar        1 LSW      -0.0792
     15 CAL        37.6777    9.0569  105.0635 C.ar        1 LSW      -0.0603
     16 CAM        38.9402    8.3184  103.1207 C.ar        1 LSW      -0.0603
     17 CAN        37.6101    8.3437  109.2629 C.ar        1 LSW      -0.0443
     18 CAO        39.6888    6.6154  108.3971 C.ar        1 LSW      -0.0747
     19 CAP        40.3679    8.3125  111.5239 C.2         1 LSW       0.0166
     20 CAQ        40.1337   14.3486  108.6174 C.3         1 LSW      -0.0354
     21 CAR        40.8130   13.4513  109.6801 C.3         1 LSW      -0.0123
     22 CAS        42.3738   13.4064  109.5789 C.3         1 LSW      -0.0410
     23 CAT        40.1554    8.4962  105.3264 C.3         1 LSW      -0.0125
     24 CAU        42.9973   12.0034  109.8305 C.3         1 LSW       0.0081
     25 CAW        42.1445    6.7448  110.5299 C.3         1 LSW      -0.0013
     26 NAX        42.9612    8.8899  109.5113 N.am        1 LSW      -0.2657
     27 CBB        44.2808    6.8901  109.2232 C.2         1 LSW       0.0613
     28 CBC        43.7186    9.8162  108.9353 C.2         1 LSW       0.2263
     29 CBD        38.9175    8.6534  104.4987 C.ar        1 LSW      -0.0427
     30 CBE        40.8222    7.4130  110.5572 C.2         1 LSW      -0.0424
     31 CBF        38.7861    8.1919  110.0172 C.ar        1 LSW       0.0603
     32 CBG        39.8060    7.3309  109.6065 C.ar        1 LSW      -0.0214
     33 CBI        43.1307   11.1022  108.5564 C.3         1 LSW       0.0683
     34 CBJ        43.3632    7.6416  110.1063 C.3         1 LSW       0.0987
     35 OXT        40.9114   11.9571  105.0703 O.co2       1 LSW      -0.5643
     36 NXZ        39.1512    8.7693  111.1717 N.pl3       1 LSW      -0.2891
     37 H1         41.1548   10.5610  108.5466 H           1 LSW       0.2052
     38 H2         41.4814   11.9161  107.6573 H           1 LSW       0.2052
     39 H3         42.4948    9.4094  106.5854 H           1 LSW       0.1027
     40 H4         39.5590   10.2774  106.5002 H           1 LSW       0.0361
     41 H5         40.1833    8.9173  107.4513 H           1 LSW       0.0361
     42 H6         39.7110   14.2867  106.5992 H           1 LSW       0.1994
     43 H7         39.6046   12.8118  107.3633 H           1 LSW       0.1994
     44 H8         41.0961   13.4855  107.0231 H           1 LSW       0.1994
     45 H9         35.7270    8.9183  102.3298 H           1 LSW       0.0559
     46 H10        35.6487    9.4980  104.6875 H           1 LSW       0.0599
     47 H11        37.8070    8.1328  101.3496 H           1 LSW       0.0599
     48 H12        36.6287    7.7061  107.5046 H           1 LSW       0.0530
     49 H13        38.4296    6.2690  106.7385 H           1 LSW       0.0510
     50 H14        37.6037    9.2789  106.0568 H           1 LSW       0.0557
     51 H15        39.8101    7.9949  102.6772 H           1 LSW       0.0557
     52 H16        36.8579    8.9584  109.5860 H           1 LSW       0.0541
     53 H17        40.4292    5.9837  108.0834 H           1 LSW       0.0540
     54 H18        40.8869    8.6147  112.3496 H           1 LSW       0.0795
     55 H19        39.0934   14.5341  108.9020 H           1 LSW       0.0813
     56 H20        40.6460   15.3107  108.5380 H           1 LSW       0.0813
     57 H21        40.3870   12.4475  109.5905 H           1 LSW       0.0317
     58 H22        40.5367   13.8182  110.6737 H           1 LSW       0.0317
     59 H23        42.7720   14.1044  110.3223 H           1 LSW       0.0270
     60 H24        42.7095   13.7729  108.6056 H           1 LSW       0.0270
     61 H25        40.1444    7.4700  105.7185 H           1 LSW       0.0429
     62 H26        41.0231    8.5694  104.6610 H           1 LSW       0.0429
     63 H27        42.4178   11.4803  110.5967 H           1 LSW       0.0346
     64 H28        44.0017   12.1526  110.2373 H           1 LSW       0.0346
     65 H29        42.0649    5.8863  109.8601 H           1 LSW       0.0390
     66 H30        42.3246    6.3434  111.5288 H           1 LSW       0.0390
     67 H31        42.0163    9.0974  109.5733 H           1 LSW       0.1878
     68 H32        43.8069   11.6183  107.8628 H           1 LSW       0.1099
     69 H33        43.9084    7.8983  111.0212 H           1 LSW       0.0741
     70 H34        38.6271    9.4128  111.6710 H           1 LSW       0.2216
@<TRIPOS>BOND
     1     1     3  ar
     2     4     1   1
     3     1    35  ar
     4     2     4   1
     5    33     2   1
     6     4     5   1
     7     5    23   1
     8    20     6   1
     9    27     7  ar
    10    28     8   2
    11    27     9  ar
    12    11    10  ar
    13    12    10  ar
    14    15    11  ar
    15    16    12  ar
    16    14    13  ar
    17    13    17  ar
    18    18    14  ar
    19    29    15  ar
    20    29    16  ar
    21    17    31  ar
    22    32    18  ar
    23    30    19   2
    24    19    36   1
    25    21    20   1
    26    22    21   1
    27    24    22   1
    28    23    29   1
    29    33    24   1
    30    30    25   1
    31    25    34   1
    32    26    28  am
    33    34    26   1
    34    34    27   1
    35    28    33   1
    36    30    32   1
    37    31    32  ar
    38    31    36   1
    39     2    37   1
    40     2    38   1
    41     4    39   1
    42     5    40   1
    43     5    41   1
    44     6    42   1
    45     6    43   1
    46     6    44   1
    47    10    45   1
    48    11    46   1
    49    12    47   1
    50    13    48   1
    51    14    49   1
    52    15    50   1
    53    16    51   1
    54    17    52   1
    55    18    53   1
    56    19    54   1
    57    20    55   1
    58    20    56   1
    59    21    57   1
    60    21    58   1
    61    22    59   1
    62    22    60   1
    63    23    61   1
    64    23    62   1
    65    24    63   1
    66    24    64   1
    67    25    65   1
    68    25    66   1
    69    26    67   1
    70    33    68   1
    71    34    69   1
    72    36    70   1
@<TRIPOS>SUBSTRUCTURE
     1  LSW      1

