@<TRIPOS>MOLECULE
3l3n_ligand_097
    70    72
SMALL
GAST_HUCK
****
This file was generated by PARSER (from files_GN.cpp)

@<TRIPOS>ATOM
      1 C          37.2642   21.2356  105.5850 C.2         1 LSW       0.0847
      2 N          39.3534   21.6439  106.8059 N.4         1 LSW       0.2599
      3 O          37.9046   20.9497  104.4162 O.co2       1 LSW      -0.5643
      4 CA         37.9244   22.0527  106.6366 C.3         1 LSW       0.0340
      5 CB         37.9175   23.5812  106.2748 C.3         1 LSW       0.0122
      6 NAA        44.2585   19.6267  104.5916 N.4         1 LSW       0.2185
      7 OAC        38.8153   18.7325  112.5088 O.co2       1 LSW      -0.5665
      8 OAD        39.4188   20.7944  109.4299 O.2         1 LSW      -0.3908
      9 OAF        37.4825   19.4102  110.7479 O.co2       1 LSW      -0.5665
     10 CAG        34.8275   22.6684  102.1585 C.ar        1 LSW      -0.0687
     11 CAH        33.9961   23.0405  103.2366 C.ar        1 LSW      -0.0686
     12 CAI        36.2227   22.8284  102.2752 C.ar        1 LSW      -0.0686
     13 CAJ        44.0047   14.2269  107.9298 C.ar        1 LSW      -0.0768
     14 CAK        44.0305   15.6306  107.8278 C.ar        1 LSW      -0.0792
     15 CAL        34.5559   23.5564  104.4232 C.ar        1 LSW      -0.0603
     16 CAM        36.7772   23.3640  103.4515 C.ar        1 LSW      -0.0603
     17 CAN        43.0800   13.5914  108.7850 C.ar        1 LSW      -0.0443
     18 CAO        43.1516   16.4249  108.5992 C.ar        1 LSW      -0.0747
     19 CAP        40.6941   15.1354  110.9263 C.2         1 LSW       0.0166
     20 CAQ        43.8447   18.4783  105.4062 C.3         1 LSW      -0.0354
     21 CAR        42.3271   18.1963  105.2669 C.3         1 LSW      -0.0123
     22 CAS        41.4041   19.4459  105.3800 C.3         1 LSW      -0.0410
     23 CAT        36.5697   24.2419  105.8179 C.3         1 LSW      -0.0125
     24 CAU        41.1645   19.9327  106.8392 C.3         1 LSW       0.0081
     25 CAW        40.8761   17.6641  110.6638 C.3         1 LSW      -0.0013
     26 NAX        39.3846   18.6126  108.9151 N.am        1 LSW      -0.2657
     27 CBB        38.6457   18.8624  111.1749 C.2         1 LSW       0.0613
     28 CBC        39.4276   19.9033  108.5752 C.2         1 LSW       0.2263
     29 CBD        35.9609   23.7178  104.5608 C.ar        1 LSW      -0.0427
     30 CBE        41.2604   16.2693  110.3362 C.2         1 LSW      -0.0424
     31 CBF        42.2065   14.3920  109.5416 C.ar        1 LSW       0.0603
     32 CBG        42.2377   15.7853  109.4623 C.ar        1 LSW      -0.0214
     33 CBI        39.6727   20.2311  107.1757 C.3         1 LSW       0.0683
     34 CBJ        39.4156   18.0292  110.2228 C.3         1 LSW       0.0987
     35 OXT        36.0513   20.6681  105.8187 O.co2       1 LSW      -0.5643
     36 NXZ        41.2595   14.0289  110.4208 N.pl3       1 LSW      -0.2891
     37 H1         39.7732   22.2664  107.5046 H           1 LSW       0.2052
     38 H2         39.8226   21.8349  105.9090 H           1 LSW       0.2052
     39 H3         37.3975   21.9320  107.5859 H           1 LSW       0.1027
     40 H4         38.6902   23.7923  105.5077 H           1 LSW       0.0361
     41 H5         38.2160   24.1191  107.1898 H           1 LSW       0.0361
     42 H6         45.2828   19.6856  104.5936 H           1 LSW       0.1994
     43 H7         43.8634   20.4857  104.9792 H           1 LSW       0.1994
     44 H8         43.9129   19.4905  103.6363 H           1 LSW       0.1994
     45 H9         34.4248   22.2720  101.3012 H           1 LSW       0.0559
     46 H10        32.9823   22.9288  103.1435 H           1 LSW       0.0599
     47 H11        36.8376   22.5367  101.5024 H           1 LSW       0.0599
     48 H12        44.6600   13.6634  107.3885 H           1 LSW       0.0530
     49 H13        44.7012   16.0832  107.2048 H           1 LSW       0.0510
     50 H14        33.9236   23.8160  105.1910 H           1 LSW       0.0557
     51 H15        37.7940   23.4668  103.5019 H           1 LSW       0.0557
     52 H16        43.0518   12.5738  108.8647 H           1 LSW       0.0541
     53 H17        43.1834   17.4450  108.5323 H           1 LSW       0.0540
     54 H18        39.9484   15.1348  111.6258 H           1 LSW       0.0795
     55 H19        44.1076   18.6596  106.4512 H           1 LSW       0.0813
     56 H20        44.3880   17.5949  105.0659 H           1 LSW       0.0813
     57 H21        42.0321   17.4710  106.0356 H           1 LSW       0.0317
     58 H22        42.1611   17.7193  104.2941 H           1 LSW       0.0317
     59 H23        40.4493   19.1626  104.9379 H           1 LSW       0.0270
     60 H24        41.8186   20.2597  104.7731 H           1 LSW       0.0270
     61 H25        36.7548   25.3086  105.6452 H           1 LSW       0.0429
     62 H26        35.8497   24.1681  106.6441 H           1 LSW       0.0429
     63 H27        41.7531   20.8418  107.0170 H           1 LSW       0.0346
     64 H28        41.5306   19.1563  107.5202 H           1 LSW       0.0346
     65 H29        41.5772   18.3708  110.2104 H           1 LSW       0.0390
     66 H30        40.9858   17.7643  111.7457 H           1 LSW       0.0390
     67 H31        39.3787   17.9844  108.1661 H           1 LSW       0.1878
     68 H32        39.0475   19.5734  106.5713 H           1 LSW       0.1099
     69 H33        38.8380   17.1096  110.1387 H           1 LSW       0.0741
     70 H34        41.0210   13.1191  110.6541 H           1 LSW       0.2216
@<TRIPOS>BOND
     1     1     3  ar
     2     4     1   1
     3     1    35  ar
     4     2     4   1
     5    33     2   1
     6     4     5   1
     7     5    23   1
     8    20     6   1
     9    27     7  ar
    10    28     8   2
    11    27     9  ar
    12    11    10  ar
    13    12    10  ar
    14    15    11  ar
    15    16    12  ar
    16    14    13  ar
    17    13    17  ar
    18    18    14  ar
    19    29    15  ar
    20    29    16  ar
    21    17    31  ar
    22    32    18  ar
    23    30    19   2
    24    19    36   1
    25    21    20   1
    26    22    21   1
    27    24    22   1
    28    23    29   1
    29    33    24   1
    30    30    25   1
    31    25    34   1
    32    26    28  am
    33    34    26   1
    34    34    27   1
    35    28    33   1
    36    30    32   1
    37    31    32  ar
    38    31    36   1
    39     2    37   1
    40     2    38   1
    41     4    39   1
    42     5    40   1
    43     5    41   1
    44     6    42   1
    45     6    43   1
    46     6    44   1
    47    10    45   1
    48    11    46   1
    49    12    47   1
    50    13    48   1
    51    14    49   1
    52    15    50   1
    53    16    51   1
    54    17    52   1
    55    18    53   1
    56    19    54   1
    57    20    55   1
    58    20    56   1
    59    21    57   1
    60    21    58   1
    61    22    59   1
    62    22    60   1
    63    23    61   1
    64    23    62   1
    65    24    63   1
    66    24    64   1
    67    25    65   1
    68    25    66   1
    69    26    67   1
    70    33    68   1
    71    34    69   1
    72    36    70   1
@<TRIPOS>SUBSTRUCTURE
     1  LSW      1

