@<TRIPOS>MOLECULE
3l3n_ligand_021
    70    72
SMALL
GAST_HUCK
****
This file was generated by PARSER (from files_GN.cpp)

@<TRIPOS>ATOM
      1 C          40.3745   13.8721  107.5002 C.2         1 LSW       0.0847
      2 N          42.5058   13.0590  108.3698 N.4         1 LSW       0.2599
      3 O          40.6463   15.1981  107.5839 O.co2       1 LSW      -0.5643
      4 CA         41.4869   12.9241  107.2775 C.3         1 LSW       0.0340
      5 CB         41.0956   11.4596  106.8883 C.3         1 LSW       0.0122
      6 NAA        42.2338   15.0685  113.8630 N.4         1 LSW       0.2185
      7 OAC        45.4178    7.1313  109.8551 O.co2       1 LSW      -0.5665
      8 OAD        43.5141   10.4980  108.4252 O.2         1 LSW      -0.3908
      9 OAF        45.5996    9.1801  108.8435 O.co2       1 LSW      -0.5665
     10 CAG        36.1404   12.5538  106.1048 C.ar        1 LSW      -0.0687
     11 CAH        36.6892   11.6220  107.0082 C.ar        1 LSW      -0.0686
     12 CAI        36.9152   13.0298  105.0324 C.ar        1 LSW      -0.0686
     13 CAJ        39.8417    6.1404  107.8918 C.ar        1 LSW      -0.0768
     14 CAK        41.2406    5.9431  107.9471 C.ar        1 LSW      -0.0792
     15 CAL        38.0121   11.1758  106.8395 C.ar        1 LSW      -0.0603
     16 CAM        38.2418   12.5923  104.8694 C.ar        1 LSW      -0.0603
     17 CAN        39.1976    6.9454  108.8513 C.ar        1 LSW      -0.0443
     18 CAO        42.0086    6.5511  108.9637 C.ar        1 LSW      -0.0747
     19 CAP        40.6747    8.6115  111.6247 C.2         1 LSW       0.0166
     20 CAQ        40.9108   14.4449  113.7320 C.3         1 LSW      -0.0354
     21 CAR        40.9619   13.1954  112.8206 C.3         1 LSW      -0.0123
     22 CAS        40.8755   13.4817  111.2919 C.3         1 LSW      -0.0410
     23 CAT        40.2174   11.2320  105.6314 C.3         1 LSW      -0.0125
     24 CAU        41.1760   12.2225  110.4142 C.3         1 LSW       0.0081
     25 CAW        43.1941    8.1382  111.6127 C.3         1 LSW      -0.0013
     26 NAX        43.5816   10.3245  110.6343 N.am        1 LSW      -0.2657
     27 CBB        44.9102    8.3780  109.7112 C.2         1 LSW       0.0613
     28 CBC        43.1714   10.9488  109.5251 C.2         1 LSW       0.2263
     29 CBD        38.8092   11.6686  105.7808 C.ar        1 LSW      -0.0427
     30 CBE        41.8178    8.0423  111.0471 C.2         1 LSW      -0.0424
     31 CBF        39.9742    7.5392  109.8612 C.ar        1 LSW       0.0603
     32 CBG        41.3615    7.3538  109.9212 C.ar        1 LSW      -0.0214
     33 CBI        42.5346   12.2586  109.6420 C.3         1 LSW       0.0683
     34 CBJ        44.2139    9.0468  110.8455 C.3         1 LSW       0.0987
     35 OXT        39.1520   13.4848  107.9229 O.co2       1 LSW      -0.5643
     36 NXZ        39.5950    8.3017  110.8914 N.pl3       1 LSW      -0.2891
     37 H1         42.4734   14.0350  108.6656 H           1 LSW       0.2052
     38 H2         43.4211   12.9229  107.9284 H           1 LSW       0.2052
     39 H3         42.0012   13.3113  106.3910 H           1 LSW       0.1027
     40 H4         40.6543   10.9440  107.7392 H           1 LSW       0.0361
     41 H5         42.0178   10.9444  106.6485 H           1 LSW       0.0361
     42 H6         42.2079   15.7962  114.5706 H           1 LSW       0.1994
     43 H7         42.5117   15.5113  112.9911 H           1 LSW       0.1994
     44 H8         42.9352   14.3709  114.1240 H           1 LSW       0.1994
     45 H9         35.1822   12.8842  106.2307 H           1 LSW       0.0559
     46 H10        36.1263   11.2722  107.7849 H           1 LSW       0.0599
     47 H11        36.5173   13.7007  104.3722 H           1 LSW       0.0599
     48 H12        39.2954    5.6928  107.1555 H           1 LSW       0.0530
     49 H13        41.6988    5.3463  107.2548 H           1 LSW       0.0510
     50 H14        38.3899   10.4886  107.4993 H           1 LSW       0.0557
     51 H15        38.7909   12.9526  104.0868 H           1 LSW       0.0557
     52 H16        38.1859    7.0790  108.8319 H           1 LSW       0.0541
     53 H17        43.0142    6.3911  109.0072 H           1 LSW       0.0540
     54 H18        40.6567    9.1804  112.4727 H           1 LSW       0.0795
     55 H19        40.1933   15.1749  113.3523 H           1 LSW       0.0813
     56 H20        40.5912   14.1428  114.7311 H           1 LSW       0.0813
     57 H21        40.1254   12.5423  113.0880 H           1 LSW       0.0317
     58 H22        41.8834   12.6488  113.0374 H           1 LSW       0.0317
     59 H23        41.5588   14.2947  111.0322 H           1 LSW       0.0270
     60 H24        39.8614   13.8372  111.0792 H           1 LSW       0.0270
     61 H25        40.2081   10.1634  105.3971 H           1 LSW       0.0429
     62 H26        40.7051   11.7214  104.7883 H           1 LSW       0.0429
     63 H27        40.3662   12.0738  109.7061 H           1 LSW       0.0346
     64 H28        41.1369   11.3397  111.0513 H           1 LSW       0.0346
     65 H29        43.5852    7.1248  111.7430 H           1 LSW       0.0390
     66 H30        43.1035    8.5578  112.6189 H           1 LSW       0.0390
     67 H31        43.3738   10.8001  111.4542 H           1 LSW       0.1878
     68 H32        43.2319   12.8074  110.2741 H           1 LSW       0.1099
     69 H33        45.0198    9.2540  111.5492 H           1 LSW       0.0741
     70 H34        38.6814    8.5645  111.0966 H           1 LSW       0.2216
@<TRIPOS>BOND
     1     1     3  ar
     2     4     1   1
     3     1    35  ar
     4     2     4   1
     5    33     2   1
     6     4     5   1
     7     5    23   1
     8    20     6   1
     9    27     7  ar
    10    28     8   2
    11    27     9  ar
    12    11    10  ar
    13    12    10  ar
    14    15    11  ar
    15    16    12  ar
    16    14    13  ar
    17    13    17  ar
    18    18    14  ar
    19    29    15  ar
    20    29    16  ar
    21    17    31  ar
    22    32    18  ar
    23    30    19   2
    24    19    36   1
    25    21    20   1
    26    22    21   1
    27    24    22   1
    28    23    29   1
    29    33    24   1
    30    30    25   1
    31    25    34   1
    32    26    28  am
    33    34    26   1
    34    34    27   1
    35    28    33   1
    36    30    32   1
    37    31    32  ar
    38    31    36   1
    39     2    37   1
    40     2    38   1
    41     4    39   1
    42     5    40   1
    43     5    41   1
    44     6    42   1
    45     6    43   1
    46     6    44   1
    47    10    45   1
    48    11    46   1
    49    12    47   1
    50    13    48   1
    51    14    49   1
    52    15    50   1
    53    16    51   1
    54    17    52   1
    55    18    53   1
    56    19    54   1
    57    20    55   1
    58    20    56   1
    59    21    57   1
    60    21    58   1
    61    22    59   1
    62    22    60   1
    63    23    61   1
    64    23    62   1
    65    24    63   1
    66    24    64   1
    67    25    65   1
    68    25    66   1
    69    26    67   1
    70    33    68   1
    71    34    69   1
    72    36    70   1
@<TRIPOS>SUBSTRUCTURE
     1  LSW      1

