@<TRIPOS>MOLECULE
3l3n_ligand_089
    70    72
SMALL
GAST_HUCK
****
This file was generated by PARSER (from files_GN.cpp)

@<TRIPOS>ATOM
      1 C          44.8627   15.7995  110.4309 C.2         1 LSW       0.0847
      2 N          42.4712   15.5631  110.5224 N.4         1 LSW       0.2599
      3 O          45.5933   14.7822  110.9487 O.co2       1 LSW      -0.5643
      4 CA         43.6605   15.5336  109.6042 C.3         1 LSW       0.0340
      5 CB         43.5267   16.5305  108.4189 C.3         1 LSW       0.0122
      6 NAA        38.8188   20.2365  106.5715 N.4         1 LSW       0.2185
      7 OAC        41.6844   13.0701  105.2500 O.co2       1 LSW      -0.5665
      8 OAD        39.9702   15.0877  108.0395 O.2         1 LSW      -0.3908
      9 OAF        43.3660   13.5521  106.7559 O.co2       1 LSW      -0.5665
     10 CAG        43.8071   19.8950  104.6270 C.ar        1 LSW      -0.0687
     11 CAH        44.9913   19.9678  105.3799 C.ar        1 LSW      -0.0686
     12 CAI        42.9491   18.7950  104.7858 C.ar        1 LSW      -0.0686
     13 CAJ        38.6940    7.0605  108.0252 C.ar        1 LSW      -0.0768
     14 CAK        38.7557    8.0622  109.0172 C.ar        1 LSW      -0.0792
     15 CAL        45.3112   18.9486  106.2990 C.ar        1 LSW      -0.0603
     16 CAM        43.2813   17.7664  105.6839 C.ar        1 LSW      -0.0603
     17 CAN        38.9597    7.3758  106.6756 C.ar        1 LSW      -0.0443
     18 CAO        39.0820    9.3908  108.6737 C.ar        1 LSW      -0.0747
     19 CAP        39.7871   10.5741  105.3249 C.2         1 LSW       0.0166
     20 CAQ        39.7108   20.0484  107.7256 C.3         1 LSW      -0.0354
     21 CAR        39.3309   18.8050  108.5901 C.3         1 LSW      -0.0123
     22 CAS        40.5688   17.9605  109.0176 C.3         1 LSW      -0.0410
     23 CAT        44.7621   16.7990  107.5123 C.3         1 LSW      -0.0125
     24 CAU        40.2966   16.9112  110.1370 C.3         1 LSW       0.0081
     25 CAW        39.8024   12.2340  107.2967 C.3         1 LSW      -0.0013
     26 NAX        41.3460   13.5184  108.7758 N.am        1 LSW      -0.2657
     27 CBB        42.1034   13.1060  106.5306 C.2         1 LSW       0.0613
     28 CBC        40.7559   14.7025  108.8981 C.2         1 LSW       0.2263
     29 CBD        44.4559   17.8367  106.4792 C.ar        1 LSW      -0.0427
     30 CBE        39.6646   10.8925  106.6784 C.2         1 LSW      -0.0424
     31 CBF        39.2824    8.7031  106.3453 C.ar        1 LSW       0.0603
     32 CBG        39.3422    9.6987  107.3237 C.ar        1 LSW      -0.0214
     33 CBI        41.0316   15.5194  110.0844 C.3         1 LSW       0.0683
     34 CBJ        41.2810   12.6061  107.6633 C.3         1 LSW       0.0987
     35 OXT        45.2395   17.0674  110.7547 O.co2       1 LSW      -0.5643
     36 NXZ        39.5603    9.2579  105.1558 N.pl3       1 LSW      -0.2891
     37 H1         42.5892   16.3762  111.1279 H           1 LSW       0.2052
     38 H2         42.5827   14.7387  111.1263 H           1 LSW       0.2052
     39 H3         43.7534   14.5205  109.2052 H           1 LSW       0.1027
     40 H4         43.1683   17.4816  108.8174 H           1 LSW       0.0361
     41 H5         42.7537   16.1182  107.7513 H           1 LSW       0.0361
     42 H6         39.1345   21.0398  106.0223 H           1 LSW       0.1994
     43 H7         37.8614   20.4003  106.8909 H           1 LSW       0.1994
     44 H8         38.8381   19.3992  105.9833 H           1 LSW       0.1994
     45 H9         43.5677   20.6422  103.9741 H           1 LSW       0.0559
     46 H10        45.6103   20.7731  105.2825 H           1 LSW       0.0599
     47 H11        42.0731   18.7554  104.2621 H           1 LSW       0.0599
     48 H12        38.4557    6.1007  108.2850 H           1 LSW       0.0530
     49 H13        38.5590    7.8246  109.9916 H           1 LSW       0.0510
     50 H14        46.1760   19.0339  106.8411 H           1 LSW       0.0557
     51 H15        42.6358   16.9762  105.7685 H           1 LSW       0.0557
     52 H16        38.9120    6.6553  105.9525 H           1 LSW       0.0541
     53 H17        39.1209   10.1135  109.3935 H           1 LSW       0.0540
     54 H18        40.0040   11.2302  104.5726 H           1 LSW       0.0795
     55 H19        39.6720   20.9578  108.3342 H           1 LSW       0.0813
     56 H20        40.7257   19.9580  107.3289 H           1 LSW       0.0813
     57 H21        38.6496   18.1633  108.0163 H           1 LSW       0.0317
     58 H22        38.7906   19.1373  109.4824 H           1 LSW       0.0317
     59 H23        41.3582   18.6333  109.3584 H           1 LSW       0.0270
     60 H24        40.9137   17.4544  108.1157 H           1 LSW       0.0270
     61 H25        45.0533   15.8804  107.0059 H           1 LSW       0.0429
     62 H26        45.6004   17.1124  108.1455 H           1 LSW       0.0429
     63 H27        39.2211   16.7068  110.1572 H           1 LSW       0.0346
     64 H28        40.5435   17.3870  111.0932 H           1 LSW       0.0346
     65 H29        39.1890   12.2406  108.2008 H           1 LSW       0.0390
     66 H30        39.3694   12.9864  106.6330 H           1 LSW       0.0390
     67 H31        41.9136   13.2439  109.5156 H           1 LSW       0.1878
     68 H32        40.5363   14.9672  110.8910 H           1 LSW       0.1099
     69 H33        41.7841   11.7013  108.0120 H           1 LSW       0.0741
     70 H34        39.5833    8.7864  104.3087 H           1 LSW       0.2216
@<TRIPOS>BOND
     1     1     3  ar
     2     4     1   1
     3     1    35  ar
     4     2     4   1
     5    33     2   1
     6     4     5   1
     7     5    23   1
     8    20     6   1
     9    27     7  ar
    10    28     8   2
    11    27     9  ar
    12    11    10  ar
    13    12    10  ar
    14    15    11  ar
    15    16    12  ar
    16    14    13  ar
    17    13    17  ar
    18    18    14  ar
    19    29    15  ar
    20    29    16  ar
    21    17    31  ar
    22    32    18  ar
    23    30    19   2
    24    19    36   1
    25    21    20   1
    26    22    21   1
    27    24    22   1
    28    23    29   1
    29    33    24   1
    30    30    25   1
    31    25    34   1
    32    26    28  am
    33    34    26   1
    34    34    27   1
    35    28    33   1
    36    30    32   1
    37    31    32  ar
    38    31    36   1
    39     2    37   1
    40     2    38   1
    41     4    39   1
    42     5    40   1
    43     5    41   1
    44     6    42   1
    45     6    43   1
    46     6    44   1
    47    10    45   1
    48    11    46   1
    49    12    47   1
    50    13    48   1
    51    14    49   1
    52    15    50   1
    53    16    51   1
    54    17    52   1
    55    18    53   1
    56    19    54   1
    57    20    55   1
    58    20    56   1
    59    21    57   1
    60    21    58   1
    61    22    59   1
    62    22    60   1
    63    23    61   1
    64    23    62   1
    65    24    63   1
    66    24    64   1
    67    25    65   1
    68    25    66   1
    69    26    67   1
    70    33    68   1
    71    34    69   1
    72    36    70   1
@<TRIPOS>SUBSTRUCTURE
     1  LSW      1

