@<TRIPOS>MOLECULE
3l3n_ligand_047
    70    72
SMALL
GAST_HUCK
****
This file was generated by PARSER (from files_GN.cpp)

@<TRIPOS>ATOM
      1 C          44.8936   15.8873  111.0253 C.2         1 LSW       0.0847
      2 N          42.9891   15.3945  109.4821 N.4         1 LSW       0.2599
      3 O          45.6701   16.2888  109.9929 O.co2       1 LSW      -0.5643
      4 CA         43.6998   15.0519  110.7484 C.3         1 LSW       0.0340
      5 CB         44.1275   13.5482  110.7215 C.3         1 LSW       0.0122
      6 NAA        43.4269   19.7263  104.1824 N.4         1 LSW       0.2185
      7 OAC        39.8156   15.3426  112.4788 O.co2       1 LSW      -0.5665
      8 OAD        42.4677   18.7270  110.3688 O.2         1 LSW      -0.3908
      9 OAF        39.3169   17.0012  114.0141 O.co2       1 LSW      -0.5665
     10 CAG        44.2817    8.4459  111.0958 C.ar        1 LSW      -0.0687
     11 CAH        44.8985    9.2278  110.1005 C.ar        1 LSW      -0.0686
     12 CAI        43.2300    8.9889  111.8544 C.ar        1 LSW      -0.0686
     13 CAJ        40.2318   21.9890  107.3309 C.ar        1 LSW      -0.0768
     14 CAK        40.6656   22.1995  108.6582 C.ar        1 LSW      -0.0792
     15 CAL        44.4736   10.5494  109.8752 C.ar        1 LSW      -0.0603
     16 CAM        42.8082   10.3071  111.6327 C.ar        1 LSW      -0.0603
     17 CAN        39.4740   20.8495  107.0053 C.ar        1 LSW      -0.0443
     18 CAO        40.3360   21.2796  109.6743 C.ar        1 LSW      -0.0747
     19 CAP        38.4050   18.2484  109.2017 C.2         1 LSW       0.0166
     20 CAQ        43.2185   18.3154  104.5419 C.3         1 LSW      -0.0354
     21 CAR        41.9478   18.1246  105.4188 C.3         1 LSW      -0.0123
     22 CAS        42.2243   18.2278  106.9552 C.3         1 LSW      -0.0410
     23 CAT        42.9950   12.5258  110.4198 C.3         1 LSW      -0.0125
     24 CAU        42.0884   16.8548  107.6949 C.3         1 LSW       0.0081
     25 CAW        39.2972   18.8154  111.5450 C.3         1 LSW      -0.0013
     26 NAX        41.0221   17.0999  110.7775 N.am        1 LSW      -0.2657
     27 CBB        39.7929   16.6613  112.7922 C.2         1 LSW       0.0613
     28 CBC        42.0560   17.6043  110.1113 C.2         1 LSW       0.2263
     29 CBD        43.4239   11.1095  110.6431 C.ar        1 LSW      -0.0427
     30 CBE        39.1001   19.0687  110.0953 C.2         1 LSW      -0.0424
     31 CBF        39.1376   19.9480  108.0244 C.ar        1 LSW       0.0603
     32 CBG        39.5545   20.1554  109.3443 C.ar        1 LSW      -0.0214
     33 CBI        42.7746   16.8227  109.1005 C.3         1 LSW       0.0683
     34 CBJ        40.3561   17.7090  111.9091 C.3         1 LSW       0.0987
     35 OXT        45.4618   15.8506  112.2570 O.co2       1 LSW      -0.5643
     36 NXZ        38.4636   18.7911  107.9683 N.pl3       1 LSW      -0.2891
     37 H1         42.0710   14.9435  109.5214 H           1 LSW       0.2052
     38 H2         43.5053   14.9506  108.7165 H           1 LSW       0.2052
     39 H3         42.9842   15.1782  111.5660 H           1 LSW       0.1027
     40 H4         44.5637   13.2977  111.6953 H           1 LSW       0.0361
     41 H5         44.9109   13.4237  109.9641 H           1 LSW       0.0361
     42 H6         44.3547   19.8317  103.7636 H           1 LSW       0.1994
     43 H7         43.3471   20.3415  104.9961 H           1 LSW       0.1994
     44 H8         42.7186   19.9970  103.4971 H           1 LSW       0.1994
     45 H9         44.5928    7.4899  111.2589 H           1 LSW       0.0559
     46 H10        45.6635    8.8357  109.5491 H           1 LSW       0.0599
     47 H11        42.7792    8.4239  112.5753 H           1 LSW       0.0599
     48 H12        40.4867   22.6556  106.6023 H           1 LSW       0.0530
     49 H13        41.2236   23.0245  108.8849 H           1 LSW       0.0510
     50 H14        44.9349   11.0999  109.1470 H           1 LSW       0.0557
     51 H15        42.0411   10.6871  112.2000 H           1 LSW       0.0557
     52 H16        39.1599   20.6870  106.0463 H           1 LSW       0.0541
     53 H17        40.6522   21.4363  110.6347 H           1 LSW       0.0540
     54 H18        37.9521   17.3603  109.4321 H           1 LSW       0.0795
     55 H19        44.1019   17.9311  105.0609 H           1 LSW       0.0813
     56 H20        43.1069   17.7433  103.6185 H           1 LSW       0.0813
     57 H21        41.5110   17.1441  105.1811 H           1 LSW       0.0317
     58 H22        41.2059   18.8761  105.1285 H           1 LSW       0.0317
     59 H23        41.5251   18.9454  107.4089 H           1 LSW       0.0270
     60 H24        43.2331   18.6293  107.1057 H           1 LSW       0.0270
     61 H25        42.6749   12.6311  109.3770 H           1 LSW       0.0429
     62 H26        42.1323   12.7711  111.0483 H           1 LSW       0.0429
     63 H27        42.5607   16.0872  107.0633 H           1 LSW       0.0346
     64 H28        41.0197   16.6014  107.7924 H           1 LSW       0.0346
     65 H29        38.3165   18.5782  111.9714 H           1 LSW       0.0390
     66 H30        39.6060   19.7439  112.0274 H           1 LSW       0.0390
     67 H31        40.7474   16.2012  110.5327 H           1 LSW       0.1878
     68 H32        43.7793   17.2439  108.9618 H           1 LSW       0.1099
     69 H33        41.1341   18.1760  112.5259 H           1 LSW       0.0741
     70 H34        38.0899   18.4054  107.1651 H           1 LSW       0.2216
@<TRIPOS>BOND
     1     1     3  ar
     2     4     1   1
     3     1    35  ar
     4     2     4   1
     5    33     2   1
     6     4     5   1
     7     5    23   1
     8    20     6   1
     9    27     7  ar
    10    28     8   2
    11    27     9  ar
    12    11    10  ar
    13    12    10  ar
    14    15    11  ar
    15    16    12  ar
    16    14    13  ar
    17    13    17  ar
    18    18    14  ar
    19    29    15  ar
    20    29    16  ar
    21    17    31  ar
    22    32    18  ar
    23    30    19   2
    24    19    36   1
    25    21    20   1
    26    22    21   1
    27    24    22   1
    28    23    29   1
    29    33    24   1
    30    30    25   1
    31    25    34   1
    32    26    28  am
    33    34    26   1
    34    34    27   1
    35    28    33   1
    36    30    32   1
    37    31    32  ar
    38    31    36   1
    39     2    37   1
    40     2    38   1
    41     4    39   1
    42     5    40   1
    43     5    41   1
    44     6    42   1
    45     6    43   1
    46     6    44   1
    47    10    45   1
    48    11    46   1
    49    12    47   1
    50    13    48   1
    51    14    49   1
    52    15    50   1
    53    16    51   1
    54    17    52   1
    55    18    53   1
    56    19    54   1
    57    20    55   1
    58    20    56   1
    59    21    57   1
    60    21    58   1
    61    22    59   1
    62    22    60   1
    63    23    61   1
    64    23    62   1
    65    24    63   1
    66    24    64   1
    67    25    65   1
    68    25    66   1
    69    26    67   1
    70    33    68   1
    71    34    69   1
    72    36    70   1
@<TRIPOS>SUBSTRUCTURE
     1  LSW      1

