@<TRIPOS>MOLECULE
3l3n_ligand_090
    70    72
SMALL
GAST_HUCK
****
This file was generated by PARSER (from files_GN.cpp)

@<TRIPOS>ATOM
      1 C          41.7759   11.2002  106.7800 C.2         1 LSW       0.0847
      2 N          41.4593   13.4772  107.7884 N.4         1 LSW       0.2599
      3 O          41.9975   10.1763  107.6379 O.co2       1 LSW      -0.5643
      4 CA         40.8261   12.2878  107.1379 C.3         1 LSW       0.0340
      5 CB         39.9035   12.7419  105.9633 C.3         1 LSW       0.0122
      6 NAA        40.9214   19.5947  105.3754 N.4         1 LSW       0.2185
      7 OAC        44.8788   10.7284  108.7430 O.co2       1 LSW      -0.5665
      8 OAD        44.7147   13.2069  106.7936 O.2         1 LSW      -0.3908
      9 OAF        46.1260   10.9527  110.6612 O.co2       1 LSW      -0.5665
     10 CAG        35.0111   12.4557  104.1583 C.ar        1 LSW      -0.0687
     11 CAH        35.9675   13.4835  104.1104 C.ar        1 LSW      -0.0686
     12 CAI        35.4016   11.1514  104.5140 C.ar        1 LSW      -0.0686
     13 CAJ        40.4777   12.8392  112.7147 C.ar        1 LSW      -0.0768
     14 CAK        41.0845   12.1420  111.6469 C.ar        1 LSW      -0.0792
     15 CAL        37.3146   13.2085  104.4176 C.ar        1 LSW      -0.0603
     16 CAM        36.7418   10.8871  104.8534 C.ar        1 LSW      -0.0603
     17 CAN        41.2057   13.8097  113.4330 C.ar        1 LSW      -0.0443
     18 CAO        42.4177   12.4172  111.2781 C.ar        1 LSW      -0.0747
     19 CAP        44.5485   14.8621  112.9212 C.2         1 LSW       0.0166
     20 CAQ        42.0141   19.2569  106.2963 C.3         1 LSW      -0.0354
     21 CAR        42.6737   17.8883  105.9802 C.3         1 LSW      -0.0123
     22 CAS        41.8777   16.6217  106.4521 C.3         1 LSW      -0.0410
     23 CAT        39.1312   11.6058  105.2157 C.3         1 LSW      -0.0125
     24 CAU        42.6250   15.7063  107.4841 C.3         1 LSW       0.0081
     25 CAW        45.5542   13.7866  110.8825 C.3         1 LSW      -0.0013
     26 NAX        44.1408   13.4830  108.9208 N.am        1 LSW      -0.2657
     27 CBB        45.3009   11.5235  109.7499 C.2         1 LSW       0.0613
     28 CBC        43.8856   13.5666  107.6226 C.2         1 LSW       0.2263
     29 CBD        37.7201   11.9132  104.8279 C.ar        1 LSW      -0.0427
     30 CBE        44.4450   13.9399  111.8723 C.2         1 LSW      -0.0424
     31 CBF        42.5357   14.0521  113.0599 C.ar        1 LSW       0.0603
     32 CBG        43.1548   13.3942  111.9868 C.ar        1 LSW      -0.0214
     33 CBI        42.6325   14.1674  107.1646 C.3         1 LSW       0.0683
     34 CBJ        45.3297   12.9917  109.5583 C.3         1 LSW       0.0987
     35 OXT        42.3509   11.1333  105.5573 O.co2       1 LSW      -0.5643
     36 NXZ        43.3941   14.9200  113.5997 N.pl3       1 LSW      -0.2891
     37 H1         41.7292   13.2005  108.7366 H           1 LSW       0.2052
     38 H2         40.7225   14.1800  107.8884 H           1 LSW       0.2052
     39 H3         40.1522   11.8778  107.8995 H           1 LSW       0.1027
     40 H4         40.4983   13.2890  105.2271 H           1 LSW       0.0361
     41 H5         39.1840   13.4490  106.3890 H           1 LSW       0.0361
     42 H6         40.5420   20.5119  105.6228 H           1 LSW       0.1994
     43 H7         40.1792   18.8961  105.4342 H           1 LSW       0.1994
     44 H8         41.2839   19.6335  104.4201 H           1 LSW       0.1994
     45 H9         34.0342   12.6514  103.9263 H           1 LSW       0.0559
     46 H10        35.6853   14.4335  103.8528 H           1 LSW       0.0599
     47 H11        34.7116   10.3995  104.5261 H           1 LSW       0.0599
     48 H12        39.5108   12.6392  112.9743 H           1 LSW       0.0530
     49 H13        40.5507   11.4363  111.1293 H           1 LSW       0.0510
     50 H14        37.9918   13.9728  104.3594 H           1 LSW       0.0557
     51 H15        36.9982    9.9334  105.1187 H           1 LSW       0.0557
     52 H16        40.7765   14.3222  114.2069 H           1 LSW       0.0541
     53 H17        42.8304   11.8998  110.5025 H           1 LSW       0.0540
     54 H18        45.3604   15.4572  113.1073 H           1 LSW       0.0795
     55 H19        41.6385   19.2688  107.3225 H           1 LSW       0.0813
     56 H20        42.7708   20.0368  106.2047 H           1 LSW       0.0813
     57 H21        43.6726   17.9092  106.4263 H           1 LSW       0.0317
     58 H22        42.8279   17.8267  104.8968 H           1 LSW       0.0317
     59 H23        41.6315   16.0488  105.5538 H           1 LSW       0.0270
     60 H24        40.9188   16.9182  106.8900 H           1 LSW       0.0270
     61 H25        39.1298   10.7145  105.8516 H           1 LSW       0.0429
     62 H26        39.6838   11.3439  104.3060 H           1 LSW       0.0429
     63 H27        42.1766   15.8646  108.4722 H           1 LSW       0.0346
     64 H28        43.6606   16.0494  107.5696 H           1 LSW       0.0346
     65 H29        46.4271   13.3878  111.4074 H           1 LSW       0.0390
     66 H30        45.8304   14.8026  110.5711 H           1 LSW       0.0390
     67 H31        43.4427   13.8129  109.5074 H           1 LSW       0.1878
     68 H32        42.5656   14.0499  106.0801 H           1 LSW       0.1099
     69 H33        46.1957   13.2079  108.9179 H           1 LSW       0.0741
     70 H34        43.1930   15.5282  114.3271 H           1 LSW       0.2216
@<TRIPOS>BOND
     1     1     3  ar
     2     4     1   1
     3     1    35  ar
     4     2     4   1
     5    33     2   1
     6     4     5   1
     7     5    23   1
     8    20     6   1
     9    27     7  ar
    10    28     8   2
    11    27     9  ar
    12    11    10  ar
    13    12    10  ar
    14    15    11  ar
    15    16    12  ar
    16    14    13  ar
    17    13    17  ar
    18    18    14  ar
    19    29    15  ar
    20    29    16  ar
    21    17    31  ar
    22    32    18  ar
    23    30    19   2
    24    19    36   1
    25    21    20   1
    26    22    21   1
    27    24    22   1
    28    23    29   1
    29    33    24   1
    30    30    25   1
    31    25    34   1
    32    26    28  am
    33    34    26   1
    34    34    27   1
    35    28    33   1
    36    30    32   1
    37    31    32  ar
    38    31    36   1
    39     2    37   1
    40     2    38   1
    41     4    39   1
    42     5    40   1
    43     5    41   1
    44     6    42   1
    45     6    43   1
    46     6    44   1
    47    10    45   1
    48    11    46   1
    49    12    47   1
    50    13    48   1
    51    14    49   1
    52    15    50   1
    53    16    51   1
    54    17    52   1
    55    18    53   1
    56    19    54   1
    57    20    55   1
    58    20    56   1
    59    21    57   1
    60    21    58   1
    61    22    59   1
    62    22    60   1
    63    23    61   1
    64    23    62   1
    65    24    63   1
    66    24    64   1
    67    25    65   1
    68    25    66   1
    69    26    67   1
    70    33    68   1
    71    34    69   1
    72    36    70   1
@<TRIPOS>SUBSTRUCTURE
     1  LSW      1

