@<TRIPOS>MOLECULE
3l3n_ligand_014
    70    72
SMALL
GAST_HUCK
****
This file was generated by PARSER (from files_GN.cpp)

@<TRIPOS>ATOM
      1 C          45.0896    8.0634  109.5336 C.2         1 LSW       0.0847
      2 N          43.9798    9.7925  110.9279 N.4         1 LSW       0.2599
      3 O          45.4921    6.7893  109.3079 O.co2       1 LSW      -0.5643
      4 CA         44.0491    8.3388  110.5520 C.3         1 LSW       0.0340
      5 CB         42.7129    7.5766  110.2499 C.3         1 LSW       0.0122
      6 NAA        42.3024   14.8670  114.1066 N.4         1 LSW       0.2185
      7 OAC        42.3545    9.8755  105.9300 O.co2       1 LSW      -0.5665
      8 OAD        43.7089   11.0356  108.4685 O.2         1 LSW      -0.3908
      9 OAF        40.1511    9.4673  106.4966 O.co2       1 LSW      -0.5665
     10 CAG        41.0046    3.7289  107.3258 C.ar        1 LSW      -0.0687
     11 CAH        40.1707    4.4346  108.2107 C.ar        1 LSW      -0.0686
     12 CAI        42.2077    4.3053  106.8855 C.ar        1 LSW      -0.0686
     13 CAJ        39.6764   16.5247  109.7718 C.ar        1 LSW      -0.0768
     14 CAK        38.9930   15.4791  109.1133 C.ar        1 LSW      -0.0792
     15 CAL        40.5505    5.7118  108.6675 C.ar        1 LSW      -0.0603
     16 CAM        42.5878    5.5807  107.3458 C.ar        1 LSW      -0.0603
     17 CAN        41.0702   16.6731  109.6165 C.ar        1 LSW      -0.0443
     18 CAO        39.6953   14.5693  108.2948 C.ar        1 LSW      -0.0747
     19 CAP        43.2771   14.6122  107.7357 C.2         1 LSW       0.0166
     20 CAQ        43.4431   14.1891  113.4743 C.3         1 LSW      -0.0354
     21 CAR        43.4439   14.3706  111.9253 C.3         1 LSW      -0.0123
     22 CAS        43.7049   13.0739  111.1096 C.3         1 LSW      -0.0410
     23 CAT        42.1876    7.6246  108.7748 C.3         1 LSW      -0.0125
     24 CAU        42.7508   11.9090  111.4968 C.3         1 LSW       0.0081
     25 CAW        41.9087   12.7558  106.6354 C.3         1 LSW      -0.0013
     26 NAX        41.5100   11.2713  108.6643 N.am        1 LSW      -0.2657
     27 CBB        41.2006   10.3214  106.4789 C.2         1 LSW       0.0613
     28 CBC        42.7066   10.9948  109.1678 C.2         1 LSW       0.2263
     29 CBD        41.7671    6.2969  108.2508 C.ar        1 LSW      -0.0427
     30 CBE        42.0624   13.9656  107.4815 C.2         1 LSW      -0.0424
     31 CBF        41.7573   15.7508  108.8108 C.ar        1 LSW       0.0603
     32 CBG        41.0930   14.7022  108.1636 C.ar        1 LSW      -0.0214
     33 CBI        42.7962   10.6361  110.5834 C.3         1 LSW       0.0683
     34 CBJ        41.1586   11.5573  107.2999 C.3         1 LSW       0.0987
     35 OXT        45.6390    9.0486  108.7809 O.co2       1 LSW      -0.5643
     36 NXZ        43.0640   15.6740  108.5263 N.pl3       1 LSW      -0.2891
     37 H1         44.8163   10.2568  110.5690 H           1 LSW       0.2052
     38 H2         44.0696    9.8103  111.9502 H           1 LSW       0.2052
     39 H3         44.4461    7.8660  111.4559 H           1 LSW       0.1027
     40 H4         41.9396    7.9793  110.9163 H           1 LSW       0.0361
     41 H5         42.8632    6.5286  110.5439 H           1 LSW       0.0361
     42 H6         42.3287   14.7115  115.1191 H           1 LSW       0.1994
     43 H7         41.4237   14.5013  113.7257 H           1 LSW       0.1994
     44 H8         42.3684   15.8667  113.9244 H           1 LSW       0.1994
     45 H9         40.7331    2.8041  106.9905 H           1 LSW       0.0559
     46 H10        39.2892    4.0209  108.5212 H           1 LSW       0.0599
     47 H11        42.8055    3.7972  106.2312 H           1 LSW       0.0599
     48 H12        39.1608   17.1784  110.3636 H           1 LSW       0.0530
     49 H13        37.9811   15.3812  109.2295 H           1 LSW       0.0510
     50 H14        39.9291    6.2200  109.3024 H           1 LSW       0.0557
     51 H15        43.4762    5.9784  107.0273 H           1 LSW       0.0557
     52 H16        41.5731   17.4281  110.0874 H           1 LSW       0.0541
     53 H17        39.1887   13.8269  107.8136 H           1 LSW       0.0540
     54 H18        44.1926   14.3260  107.3860 H           1 LSW       0.0795
     55 H19        43.3932   13.1253  113.7386 H           1 LSW       0.0813
     56 H20        44.3665   14.5962  113.8933 H           1 LSW       0.0813
     57 H21        44.2153   15.1055  111.6650 H           1 LSW       0.0317
     58 H22        42.4894   14.7948  111.5949 H           1 LSW       0.0317
     59 H23        44.7460   12.7704  111.2234 H           1 LSW       0.0270
     60 H24        43.5500   13.3091  110.0465 H           1 LSW       0.0270
     61 H25        42.9468    8.0420  108.1122 H           1 LSW       0.0429
     62 H26        41.3317    8.3089  108.7124 H           1 LSW       0.0429
     63 H27        41.7210   12.2752  111.4996 H           1 LSW       0.0346
     64 H28        42.9818   11.5931  112.5211 H           1 LSW       0.0346
     65 H29        42.9019   12.4268  106.3135 H           1 LSW       0.0390
     66 H30        41.3643   13.0502  105.7361 H           1 LSW       0.0390
     67 H31        40.7635   11.2441  109.2910 H           1 LSW       0.1878
     68 H32        41.9061   10.0480  110.8490 H           1 LSW       0.1099
     69 H33        40.1068   11.8419  107.3468 H           1 LSW       0.0741
     70 H34        43.7486   16.2849  108.8471 H           1 LSW       0.2216
@<TRIPOS>BOND
     1     1     3  ar
     2     4     1   1
     3     1    35  ar
     4     2     4   1
     5    33     2   1
     6     4     5   1
     7     5    23   1
     8    20     6   1
     9    27     7  ar
    10    28     8   2
    11    27     9  ar
    12    11    10  ar
    13    12    10  ar
    14    15    11  ar
    15    16    12  ar
    16    14    13  ar
    17    13    17  ar
    18    18    14  ar
    19    29    15  ar
    20    29    16  ar
    21    17    31  ar
    22    32    18  ar
    23    30    19   2
    24    19    36   1
    25    21    20   1
    26    22    21   1
    27    24    22   1
    28    23    29   1
    29    33    24   1
    30    30    25   1
    31    25    34   1
    32    26    28  am
    33    34    26   1
    34    34    27   1
    35    28    33   1
    36    30    32   1
    37    31    32  ar
    38    31    36   1
    39     2    37   1
    40     2    38   1
    41     4    39   1
    42     5    40   1
    43     5    41   1
    44     6    42   1
    45     6    43   1
    46     6    44   1
    47    10    45   1
    48    11    46   1
    49    12    47   1
    50    13    48   1
    51    14    49   1
    52    15    50   1
    53    16    51   1
    54    17    52   1
    55    18    53   1
    56    19    54   1
    57    20    55   1
    58    20    56   1
    59    21    57   1
    60    21    58   1
    61    22    59   1
    62    22    60   1
    63    23    61   1
    64    23    62   1
    65    24    63   1
    66    24    64   1
    67    25    65   1
    68    25    66   1
    69    26    67   1
    70    33    68   1
    71    34    69   1
    72    36    70   1
@<TRIPOS>SUBSTRUCTURE
     1  LSW      1

