@<TRIPOS>MOLECULE
3l3n_ligand_023
    70    72
SMALL
GAST_HUCK
****
This file was generated by PARSER (from files_GN.cpp)

@<TRIPOS>ATOM
      1 C          41.2642   11.5969  106.1653 C.2         1 LSW       0.0847
      2 N          40.6061   11.0766  108.5249 N.4         1 LSW       0.2599
      3 O          40.9861   12.1522  104.9660 O.co2       1 LSW      -0.5643
      4 CA         40.4845   11.9934  107.3529 C.3         1 LSW       0.0340
      5 CB         40.4989   13.5345  107.6741 C.3         1 LSW       0.0122
      6 NAA        42.6010    9.0769  113.7429 N.4         1 LSW       0.2185
      7 OAC        45.4881    6.8767  109.4750 O.co2       1 LSW      -0.5665
      8 OAD        43.6099   10.1591  110.3589 O.2         1 LSW      -0.3908
      9 OAF        45.5138    9.0224  108.6242 O.co2       1 LSW      -0.5665
     10 CAG        45.2477   13.6098  109.5791 C.ar        1 LSW      -0.0687
     11 CAH        44.2955   14.5373  110.0349 C.ar        1 LSW      -0.0686
     12 CAI        45.0749   12.9839  108.3292 C.ar        1 LSW      -0.0686
     13 CAJ        38.3464    8.1213  105.1583 C.ar        1 LSW      -0.0768
     14 CAK        39.6384    8.5675  104.8118 C.ar        1 LSW      -0.0792
     15 CAL        43.1549   14.8142  109.2585 C.ar        1 LSW      -0.0603
     16 CAM        43.9420   13.2726  107.5502 C.ar        1 LSW      -0.0603
     17 CAN        38.1615    7.2221  106.2288 C.ar        1 LSW      -0.0443
     18 CAO        40.7636    8.1205  105.5335 C.ar        1 LSW      -0.0747
     19 CAP        40.6635    5.8901  108.3848 C.2         1 LSW       0.0166
     20 CAQ        41.5052    8.3962  113.0403 C.3         1 LSW      -0.0354
     21 CAR        40.2847    9.3117  112.7425 C.3         1 LSW      -0.0123
     22 CAS        40.1888    9.8398  111.2817 C.3         1 LSW      -0.0410
     23 CAT        41.7136   14.4107  107.2332 C.3         1 LSW      -0.0125
     24 CAU        41.0051   11.1385  110.9670 C.3         1 LSW       0.0081
     25 CAW        42.9205    6.8708  107.6373 C.3         1 LSW      -0.0013
     26 NAX        42.6582    9.0826  108.6778 N.am        1 LSW      -0.2657
     27 CBB        44.8181    7.8883  108.8752 C.2         1 LSW       0.0613
     28 CBC        42.7221   10.1173  109.5124 C.2         1 LSW       0.2263
     29 CBD        42.9543   14.1724  108.0131 C.ar        1 LSW      -0.0427
     30 CBE        41.4520    6.6639  107.5314 C.2         1 LSW      -0.0424
     31 CBF        39.2903    6.7900  106.9456 C.ar        1 LSW       0.0603
     32 CBG        40.5728    7.2321  106.6085 C.ar        1 LSW      -0.0214
     33 CBI        41.6878   11.1576  109.5575 C.3         1 LSW       0.0683
     34 CBJ        43.3379    7.8156  108.8055 C.3         1 LSW       0.0987
     35 OXT        42.2865   10.7134  106.2021 O.co2       1 LSW      -0.5643
     36 NXZ        39.3747    5.9746  108.0076 N.pl3       1 LSW      -0.2891
     37 H1         40.5713   10.1207  108.1691 H           1 LSW       0.2052
     38 H2         39.7303   11.2103  109.0337 H           1 LSW       0.2052
     39 H3         39.4591   11.7807  107.0424 H           1 LSW       0.1027
     40 H4         40.3305   13.6751  108.7428 H           1 LSW       0.0361
     41 H5         39.6283   13.9805  107.1798 H           1 LSW       0.0361
     42 H6         43.3753    8.4216  113.8663 H           1 LSW       0.1994
     43 H7         42.2880    9.3937  114.6641 H           1 LSW       0.1994
     44 H8         42.9281    9.8748  113.1962 H           1 LSW       0.1994
     45 H9         46.0657   13.3907  110.1489 H           1 LSW       0.0559
     46 H10        44.4227   14.9981  110.9404 H           1 LSW       0.0599
     47 H11        45.7701   12.3169  107.9893 H           1 LSW       0.0599
     48 H12        37.5372    8.4549  104.6306 H           1 LSW       0.0530
     49 H13        39.7619    9.2253  104.0364 H           1 LSW       0.0510
     50 H14        42.4624   15.4811  109.6146 H           1 LSW       0.0557
     51 H15        43.8388   12.8063  106.6445 H           1 LSW       0.0557
     52 H16        37.2257    6.8967  106.4810 H           1 LSW       0.0541
     53 H17        41.6974    8.4515  105.2834 H           1 LSW       0.0540
     54 H18        41.0054    5.3527  109.1824 H           1 LSW       0.0795
     55 H19        41.1868    7.5688  113.6771 H           1 LSW       0.0813
     56 H20        41.8963    7.9682  112.1176 H           1 LSW       0.0813
     57 H21        40.2604   10.1485  113.4448 H           1 LSW       0.0317
     58 H22        39.3845    8.7174  112.9230 H           1 LSW       0.0317
     59 H23        39.1386   10.0487  111.0647 H           1 LSW       0.0270
     60 H24        40.4762    9.0257  110.6097 H           1 LSW       0.0270
     61 H25        41.4408   15.4661  107.3447 H           1 LSW       0.0429
     62 H26        41.8956   14.2721  106.1686 H           1 LSW       0.0429
     63 H27        41.7598   11.3059  111.7379 H           1 LSW       0.0346
     64 H28        40.3286   11.9966  111.0355 H           1 LSW       0.0346
     65 H29        43.2975    7.2847  106.7010 H           1 LSW       0.0390
     66 H30        43.3913    5.8886  107.7673 H           1 LSW       0.0390
     67 H31        41.9799    9.1288  107.9922 H           1 LSW       0.1878
     68 H32        42.1901   12.1111  109.4658 H           1 LSW       0.1099
     69 H33        42.9876    7.3678  109.7398 H           1 LSW       0.0741
     70 H34        38.6233    5.5392  108.4441 H           1 LSW       0.2216
@<TRIPOS>BOND
     1     1     3  ar
     2     4     1   1
     3     1    35  ar
     4     2     4   1
     5    33     2   1
     6     4     5   1
     7     5    23   1
     8    20     6   1
     9    27     7  ar
    10    28     8   2
    11    27     9  ar
    12    11    10  ar
    13    12    10  ar
    14    15    11  ar
    15    16    12  ar
    16    14    13  ar
    17    13    17  ar
    18    18    14  ar
    19    29    15  ar
    20    29    16  ar
    21    17    31  ar
    22    32    18  ar
    23    30    19   2
    24    19    36   1
    25    21    20   1
    26    22    21   1
    27    24    22   1
    28    23    29   1
    29    33    24   1
    30    30    25   1
    31    25    34   1
    32    26    28  am
    33    34    26   1
    34    34    27   1
    35    28    33   1
    36    30    32   1
    37    31    32  ar
    38    31    36   1
    39     2    37   1
    40     2    38   1
    41     4    39   1
    42     5    40   1
    43     5    41   1
    44     6    42   1
    45     6    43   1
    46     6    44   1
    47    10    45   1
    48    11    46   1
    49    12    47   1
    50    13    48   1
    51    14    49   1
    52    15    50   1
    53    16    51   1
    54    17    52   1
    55    18    53   1
    56    19    54   1
    57    20    55   1
    58    20    56   1
    59    21    57   1
    60    21    58   1
    61    22    59   1
    62    22    60   1
    63    23    61   1
    64    23    62   1
    65    24    63   1
    66    24    64   1
    67    25    65   1
    68    25    66   1
    69    26    67   1
    70    33    68   1
    71    34    69   1
    72    36    70   1
@<TRIPOS>SUBSTRUCTURE
     1  LSW      1

