@<TRIPOS>MOLECULE
3l3n_ligand_024
    70    72
SMALL
GAST_HUCK
****
This file was generated by PARSER (from files_GN.cpp)

@<TRIPOS>ATOM
      1 C          44.5638    9.6582  109.7099 C.2         1 LSW       0.0847
      2 N          44.8886   11.9997  109.4077 N.4         1 LSW       0.2599
      3 O          44.1730    8.7415  110.6362 O.co2       1 LSW      -0.5643
      4 CA         43.8394   10.9424  109.5822 C.3         1 LSW       0.0340
      5 CB         42.7450   10.9158  108.4553 C.3         1 LSW       0.0122
      6 NAA        45.8398   15.4237  114.5701 N.4         1 LSW       0.2185
      7 OAC        45.6302   17.2457  108.0714 O.co2       1 LSW      -0.5665
      8 OAD        44.3870   13.6959  107.3092 O.2         1 LSW      -0.3908
      9 OAF        44.9537   17.2483  105.8612 O.co2       1 LSW      -0.5665
     10 CAG        41.6236    6.6116  110.9690 C.ar        1 LSW      -0.0687
     11 CAH        41.8674    6.6590  109.5846 C.ar        1 LSW      -0.0686
     12 CAI        41.2292    7.7741  111.6548 C.ar        1 LSW      -0.0686
     13 CAJ        37.9716   19.9178  106.5005 C.ar        1 LSW      -0.0768
     14 CAK        38.0470   18.8944  107.4700 C.ar        1 LSW      -0.0792
     15 CAL        41.7411    7.8770  108.8894 C.ar        1 LSW      -0.0603
     16 CAM        41.0866    8.9861  110.9532 C.ar        1 LSW      -0.0603
     17 CAN        39.1226   20.3393  105.8146 C.ar        1 LSW      -0.0443
     18 CAO        39.2909   18.2905  107.7826 C.ar        1 LSW      -0.0747
     19 CAP        42.4744   19.2123  106.3015 C.2         1 LSW       0.0166
     20 CAQ        46.6187   16.1862  113.5896 C.3         1 LSW      -0.0354
     21 CAR        46.1920   15.9366  112.1163 C.3         1 LSW      -0.0123
     22 CAS        45.8502   14.4589  111.7606 C.3         1 LSW      -0.0410
     23 CAT        41.3455   10.3707  108.8606 C.3         1 LSW      -0.0125
     24 CAU        45.8276   14.1772  110.2194 C.3         1 LSW       0.0081
     25 CAW        42.4045   17.4008  108.1407 C.3         1 LSW      -0.0013
     26 NAX        43.6416   15.3660  108.5671 N.am        1 LSW      -0.2657
     27 CBB        44.6890   16.9504  107.1579 C.2         1 LSW       0.0613
     28 CBC        44.1144   14.1248  108.4183 C.2         1 LSW       0.2263
     29 CBD        41.3810    9.0631  109.5705 C.ar        1 LSW      -0.0427
     30 CBE        41.7951   18.3637  107.1922 C.2         1 LSW      -0.0424
     31 CBF        40.3477   19.7271  106.1289 C.ar        1 LSW       0.0603
     32 CBG        40.4457   18.7227  107.0987 C.ar        1 LSW      -0.0214
     33 CBI        44.5590   13.4385  109.6369 C.3         1 LSW       0.0683
     34 CBJ        43.4028   16.3491  107.5506 C.3         1 LSW       0.0987
     35 OXT        45.6037    9.3393  108.8951 O.co2       1 LSW      -0.5643
     36 NXZ        41.5766   19.9872  105.6640 N.pl3       1 LSW      -0.2891
     37 H1         45.2950   11.9144  108.4723 H           1 LSW       0.2052
     38 H2         45.6259   11.7679  110.0828 H           1 LSW       0.2052
     39 H3         43.3421   11.1407  110.5392 H           1 LSW       0.1027
     40 H4         43.1197   10.3569  107.5955 H           1 LSW       0.0361
     41 H5         42.5730   11.9314  108.1127 H           1 LSW       0.0361
     42 H6         46.1704   15.6456  115.5161 H           1 LSW       0.1994
     43 H7         45.9739   14.4261  114.3879 H           1 LSW       0.1994
     44 H8         44.8462   15.6588  114.4973 H           1 LSW       0.1994
     45 H9         41.7519    5.7378  111.4834 H           1 LSW       0.0559
     46 H10        42.1657    5.8135  109.0911 H           1 LSW       0.0599
     47 H11        41.0667    7.7452  112.6618 H           1 LSW       0.0599
     48 H12        37.0761   20.3634  106.2955 H           1 LSW       0.0530
     49 H13        37.2039   18.5835  107.9515 H           1 LSW       0.0510
     50 H14        41.9602    7.8988  107.8887 H           1 LSW       0.0557
     51 H15        40.8330    9.8255  111.4764 H           1 LSW       0.0557
     52 H16        39.0896   21.0840  105.1091 H           1 LSW       0.0541
     53 H17        39.3362   17.5687  108.5048 H           1 LSW       0.0540
     54 H18        43.4901   19.2649  106.1718 H           1 LSW       0.0795
     55 H19        47.6712   15.9158  113.7140 H           1 LSW       0.0813
     56 H20        46.5128   17.2492  113.8183 H           1 LSW       0.0813
     57 H21        47.0245   16.2718  111.4927 H           1 LSW       0.0317
     58 H22        45.3288   16.5649  111.8787 H           1 LSW       0.0317
     59 H23        44.8838   14.2096  112.2082 H           1 LSW       0.0270
     60 H24        46.6004   13.8037  112.2114 H           1 LSW       0.0270
     61 H25        40.7331   10.2678  107.9627 H           1 LSW       0.0429
     62 H26        40.8534   11.1216  109.4809 H           1 LSW       0.0429
     63 H27        46.7210   13.5951  109.9632 H           1 LSW       0.0346
     64 H28        45.9635   15.1305  109.7015 H           1 LSW       0.0346
     65 H29        41.5989   16.8454  108.6243 H           1 LSW       0.0390
     66 H30        42.8988   17.9669  108.9292 H           1 LSW       0.0390
     67 H31        43.5340   15.6699  109.4832 H           1 LSW       0.1878
     68 H32        43.7361   13.4983  110.3630 H           1 LSW       0.1099
     69 H33        42.9293   15.8720  106.6862 H           1 LSW       0.0741
     70 H34        41.7973   20.6680  105.0047 H           1 LSW       0.2216
@<TRIPOS>BOND
     1     1     3  ar
     2     4     1   1
     3     1    35  ar
     4     2     4   1
     5    33     2   1
     6     4     5   1
     7     5    23   1
     8    20     6   1
     9    27     7  ar
    10    28     8   2
    11    27     9  ar
    12    11    10  ar
    13    12    10  ar
    14    15    11  ar
    15    16    12  ar
    16    14    13  ar
    17    13    17  ar
    18    18    14  ar
    19    29    15  ar
    20    29    16  ar
    21    17    31  ar
    22    32    18  ar
    23    30    19   2
    24    19    36   1
    25    21    20   1
    26    22    21   1
    27    24    22   1
    28    23    29   1
    29    33    24   1
    30    30    25   1
    31    25    34   1
    32    26    28  am
    33    34    26   1
    34    34    27   1
    35    28    33   1
    36    30    32   1
    37    31    32  ar
    38    31    36   1
    39     2    37   1
    40     2    38   1
    41     4    39   1
    42     5    40   1
    43     5    41   1
    44     6    42   1
    45     6    43   1
    46     6    44   1
    47    10    45   1
    48    11    46   1
    49    12    47   1
    50    13    48   1
    51    14    49   1
    52    15    50   1
    53    16    51   1
    54    17    52   1
    55    18    53   1
    56    19    54   1
    57    20    55   1
    58    20    56   1
    59    21    57   1
    60    21    58   1
    61    22    59   1
    62    22    60   1
    63    23    61   1
    64    23    62   1
    65    24    63   1
    66    24    64   1
    67    25    65   1
    68    25    66   1
    69    26    67   1
    70    33    68   1
    71    34    69   1
    72    36    70   1
@<TRIPOS>SUBSTRUCTURE
     1  LSW      1

