@<TRIPOS>MOLECULE
3l3n_ligand_012
    70    72
SMALL
GAST_HUCK
****
This file was generated by PARSER (from files_GN.cpp)

@<TRIPOS>ATOM
      1 C          39.8831   18.4522  109.6739 C.2         1 LSW       0.0847
      2 N          41.1461   16.4191  109.2215 N.4         1 LSW       0.2599
      3 O          40.9525   19.2517  109.9079 O.co2       1 LSW      -0.5643
      4 CA         39.9663   16.9936  109.9384 C.3         1 LSW       0.0340
      5 CB         40.0607   16.7327  111.4722 C.3         1 LSW       0.0122
      6 NAA        44.3302   19.7758  104.4825 N.4         1 LSW       0.2185
      7 OAC        43.2688   12.8933  106.0506 O.co2       1 LSW      -0.5665
      8 OAD        41.6623   13.8151  108.7118 O.2         1 LSW      -0.3908
      9 OAF        42.5658   10.7032  105.7335 O.co2       1 LSW      -0.5665
     10 CAG        44.0134   14.6384  113.7910 C.ar        1 LSW      -0.0687
     11 CAH        42.9259   15.1439  114.5229 C.ar        1 LSW      -0.0686
     12 CAI        43.8325   14.2476  112.4552 C.ar        1 LSW      -0.0686
     13 CAJ        35.0266   13.7211  104.1337 C.ar        1 LSW      -0.0768
     14 CAK        36.1961   13.7876  103.3477 C.ar        1 LSW      -0.0792
     15 CAL        41.6662   15.2975  113.9146 C.ar        1 LSW      -0.0603
     16 CAM        42.5716   14.3922  111.8437 C.ar        1 LSW      -0.0603
     17 CAN        35.0567   13.1177  105.4087 C.ar        1 LSW      -0.0443
     18 CAO        37.4121   13.2536  103.8288 C.ar        1 LSW      -0.0747
     19 CAP        37.8421   11.5919  107.0199 C.2         1 LSW       0.0166
     20 CAQ        43.8313   18.7655  105.4232 C.3         1 LSW      -0.0354
     21 CAR        42.2858   18.7770  105.4580 C.3         1 LSW      -0.0123
     22 CAS        41.6559   18.1031  106.7029 C.3         1 LSW      -0.0410
     23 CAT        40.1800   15.2254  111.8822 C.3         1 LSW      -0.0125
     24 CAU        41.9020   16.5732  106.8209 C.3         1 LSW       0.0081
     25 CAW        39.8508   11.7948  105.4458 C.3         1 LSW      -0.0013
     26 NAX        40.7232   13.7301  106.6980 N.am        1 LSW      -0.2657
     27 CBB        42.2653   11.9794  106.0748 C.2         1 LSW       0.0613
     28 CBC        41.1274   14.4100  107.7745 C.2         1 LSW       0.2263
     29 CBD        41.4765   14.9358  112.5598 C.ar        1 LSW      -0.0427
     30 CBE        38.4415   12.0245  105.8348 C.2         1 LSW      -0.0424
     31 CBF        36.2700   12.5788  105.8726 C.ar        1 LSW       0.0603
     32 CBG        37.4342   12.6481  105.0995 C.ar        1 LSW      -0.0214
     33 CBI        40.9450   15.8722  107.8367 C.3         1 LSW       0.0683
     34 CBJ        40.8796   12.3170  106.4895 C.3         1 LSW       0.0987
     35 OXT        38.7226   19.0338  109.2924 O.co2       1 LSW      -0.5643
     36 NXZ        36.5472   11.9479  107.0200 N.pl3       1 LSW      -0.2891
     37 H1         41.5213   15.6663  109.8061 H           1 LSW       0.2052
     38 H2         41.8698   17.1377  109.1910 H           1 LSW       0.2052
     39 H3         39.0401   16.5166  109.5927 H           1 LSW       0.1027
     40 H4         39.1610   17.1440  111.9492 H           1 LSW       0.0361
     41 H5         40.9070   17.3083  111.8673 H           1 LSW       0.0361
     42 H6         45.3478   19.7307  104.4328 H           1 LSW       0.1994
     43 H7         44.0445   20.7040  104.8041 H           1 LSW       0.1994
     44 H8         43.9334   19.5998  103.5597 H           1 LSW       0.1994
     45 H9         44.9316   14.5595  114.2251 H           1 LSW       0.0559
     46 H10        43.0539   15.4255  115.4967 H           1 LSW       0.0599
     47 H11        44.6190   13.8722  111.9180 H           1 LSW       0.0599
     48 H12        34.1508   14.1126  103.7806 H           1 LSW       0.0530
     49 H13        36.1619   14.2204  102.4230 H           1 LSW       0.0510
     50 H14        40.8992   15.7033  114.4553 H           1 LSW       0.0557
     51 H15        42.4665   14.1258  110.8564 H           1 LSW       0.0557
     52 H16        34.2162   13.0796  105.9891 H           1 LSW       0.0541
     53 H17        38.2525   13.3013  103.2508 H           1 LSW       0.0540
     54 H18        38.3027   11.0841  107.7784 H           1 LSW       0.0795
     55 H19        44.2449   18.9916  106.4099 H           1 LSW       0.0813
     56 H20        44.1943   17.7821  105.1087 H           1 LSW       0.0813
     57 H21        41.9108   18.2941  104.5540 H           1 LSW       0.0317
     58 H22        41.9438   19.8207  105.4384 H           1 LSW       0.0317
     59 H23        40.5801   18.2855  106.6606 H           1 LSW       0.0270
     60 H24        42.0409   18.6058  107.5936 H           1 LSW       0.0270
     61 H25        40.0635   14.5802  111.0087 H           1 LSW       0.0429
     62 H26        39.3639   14.9590  112.5579 H           1 LSW       0.0429
     63 H27        42.9421   16.4021  107.1152 H           1 LSW       0.0346
     64 H28        41.7650   16.1361  105.8313 H           1 LSW       0.0346
     65 H29        40.0518   12.2585  104.4781 H           1 LSW       0.0390
     66 H30        39.9704   10.7196  105.3267 H           1 LSW       0.0390
     67 H31        40.2829   14.2313  105.9983 H           1 LSW       0.1878
     68 H32        39.9224   16.0746  107.5200 H           1 LSW       0.1099
     69 H33        40.6937   11.7826  107.4308 H           1 LSW       0.0741
     70 H34        35.9202   11.7732  107.7399 H           1 LSW       0.2216
@<TRIPOS>BOND
     1     1     3  ar
     2     4     1   1
     3     1    35  ar
     4     2     4   1
     5    33     2   1
     6     4     5   1
     7     5    23   1
     8    20     6   1
     9    27     7  ar
    10    28     8   2
    11    27     9  ar
    12    11    10  ar
    13    12    10  ar
    14    15    11  ar
    15    16    12  ar
    16    14    13  ar
    17    13    17  ar
    18    18    14  ar
    19    29    15  ar
    20    29    16  ar
    21    17    31  ar
    22    32    18  ar
    23    30    19   2
    24    19    36   1
    25    21    20   1
    26    22    21   1
    27    24    22   1
    28    23    29   1
    29    33    24   1
    30    30    25   1
    31    25    34   1
    32    26    28  am
    33    34    26   1
    34    34    27   1
    35    28    33   1
    36    30    32   1
    37    31    32  ar
    38    31    36   1
    39     2    37   1
    40     2    38   1
    41     4    39   1
    42     5    40   1
    43     5    41   1
    44     6    42   1
    45     6    43   1
    46     6    44   1
    47    10    45   1
    48    11    46   1
    49    12    47   1
    50    13    48   1
    51    14    49   1
    52    15    50   1
    53    16    51   1
    54    17    52   1
    55    18    53   1
    56    19    54   1
    57    20    55   1
    58    20    56   1
    59    21    57   1
    60    21    58   1
    61    22    59   1
    62    22    60   1
    63    23    61   1
    64    23    62   1
    65    24    63   1
    66    24    64   1
    67    25    65   1
    68    25    66   1
    69    26    67   1
    70    33    68   1
    71    34    69   1
    72    36    70   1
@<TRIPOS>SUBSTRUCTURE
     1  LSW      1

