@<TRIPOS>MOLECULE
3l3n_ligand_016
    70    72
SMALL
GAST_HUCK
****
This file was generated by PARSER (from files_GN.cpp)

@<TRIPOS>ATOM
      1 C          46.7994   13.5817  110.5675 C.2         1 LSW       0.0847
      2 N          44.7210   14.3967  111.7069 N.4         1 LSW       0.2599
      3 O          48.0586   13.1832  110.8899 O.co2       1 LSW      -0.5643
      4 CA         46.1039   14.7112  111.2508 C.3         1 LSW       0.0340
      5 CB         46.9310   15.2302  112.4780 C.3         1 LSW       0.0122
      6 NAA        38.9463   15.5227  113.9795 N.4         1 LSW       0.2185
      7 OAC        40.6605   15.4915  107.9953 O.co2       1 LSW      -0.5665
      8 OAD        43.9948   14.9592  109.0713 O.2         1 LSW      -0.3908
      9 OAF        42.4251   15.7432  106.4825 O.co2       1 LSW      -0.5665
     10 CAG        48.3159   17.2779  117.0504 C.ar        1 LSW      -0.0687
     11 CAH        47.9432   18.3000  116.1571 C.ar        1 LSW      -0.0686
     12 CAI        48.0332   15.9362  116.7408 C.ar        1 LSW      -0.0686
     13 CAJ        43.3697    7.7692  107.1239 C.ar        1 LSW      -0.0768
     14 CAK        43.5284    8.7617  108.1097 C.ar        1 LSW      -0.0792
     15 CAL        47.2901   17.9754  114.9522 C.ar        1 LSW      -0.0603
     16 CAM        47.3671   15.6157  115.5449 C.ar        1 LSW      -0.0603
     17 CAN        42.5288    7.9947  106.0182 C.ar        1 LSW      -0.0443
     18 CAO        42.8419    9.9888  108.0024 C.ar        1 LSW      -0.0747
     19 CAP        40.6255   10.9032  105.2823 C.2         1 LSW       0.0166
     20 CAQ        40.1756   14.7300  114.1350 C.3         1 LSW      -0.0354
     21 CAR        41.3745   15.3647  113.3697 C.3         1 LSW      -0.0123
     22 CAS        41.5975   14.8246  111.9297 C.3         1 LSW      -0.0410
     23 CAT        46.2257   16.2780  113.3962 C.3         1 LSW      -0.0125
     24 CAU        42.4326   13.4981  111.8282 C.3         1 LSW       0.0081
     25 CAW        40.8806   12.5622  107.1913 C.3         1 LSW      -0.0013
     26 NAX        42.5222   13.3100  108.8692 N.am        1 LSW      -0.2657
     27 CBB        41.6969   14.9428  107.3039 C.2         1 LSW       0.0613
     28 CBC        43.4226   13.9964  109.5676 C.2         1 LSW       0.2263
     29 CBD        46.9934   16.6293  114.6249 C.ar        1 LSW      -0.0427
     30 CBE        41.2122   11.2972  106.4894 C.2         1 LSW      -0.0424
     31 CBF        41.8645    9.2290  105.9120 C.ar        1 LSW       0.0603
     32 CBG        42.0158   10.2231  106.8857 C.ar        1 LSW      -0.0214
     33 CBI        43.7295   13.5712  110.9416 C.3         1 LSW       0.0683
     34 CBJ        42.0841   13.5187  107.5138 C.3         1 LSW       0.0987
     35 OXT        46.2959   13.0826  109.4167 O.co2       1 LSW      -0.5643
     36 NXZ        41.0263    9.6649  104.9641 N.pl3       1 LSW      -0.2891
     37 H1         44.2671   15.2972  111.8919 H           1 LSW       0.2052
     38 H2         44.8382   13.9160  112.5993 H           1 LSW       0.2052
     39 H3         46.0401   15.5398  110.5365 H           1 LSW       0.1027
     40 H4         47.8582   15.6768  112.1102 H           1 LSW       0.0361
     41 H5         47.2038   14.3708  113.0959 H           1 LSW       0.0361
     42 H6         38.1758   15.0559  114.4655 H           1 LSW       0.1994
     43 H7         38.7021   15.6327  112.9941 H           1 LSW       0.1994
     44 H8         39.0909   16.4478  114.3939 H           1 LSW       0.1994
     45 H9         48.7848   17.5135  117.9314 H           1 LSW       0.0559
     46 H10        48.1345   19.2752  116.3908 H           1 LSW       0.0599
     47 H11        48.3008   15.1938  117.3908 H           1 LSW       0.0599
     48 H12        43.8658    6.8865  107.2215 H           1 LSW       0.0530
     49 H13        44.1381    8.5995  108.9137 H           1 LSW       0.0510
     50 H14        47.0130   18.7318  114.3272 H           1 LSW       0.0557
     51 H15        47.1431   14.6408  115.3584 H           1 LSW       0.0557
     52 H16        42.3985    7.2728  105.3120 H           1 LSW       0.0541
     53 H17        42.9541   10.7010  108.7270 H           1 LSW       0.0540
     54 H18        39.9576   11.4398  104.7312 H           1 LSW       0.0795
     55 H19        39.9829   13.7095  113.7853 H           1 LSW       0.0813
     56 H20        40.4012   14.6842  115.2080 H           1 LSW       0.0813
     57 H21        42.2868   15.2121  113.9562 H           1 LSW       0.0317
     58 H22        41.2058   16.4460  113.3199 H           1 LSW       0.0317
     59 H23        42.0990   15.6150  111.3653 H           1 LSW       0.0270
     60 H24        40.6257   14.6803  111.4463 H           1 LSW       0.0270
     61 H25        45.2615   15.8836  113.7314 H           1 LSW       0.0429
     62 H26        46.0164   17.1716  112.7959 H           1 LSW       0.0429
     63 H27        41.7760   12.7079  111.4412 H           1 LSW       0.0346
     64 H28        42.7279   13.1671  112.8341 H           1 LSW       0.0346
     65 H29        40.3602   12.2953  108.1155 H           1 LSW       0.0390
     66 H30        40.1455   13.1010  106.5788 H           1 LSW       0.0390
     67 H31        42.0937   12.5828  109.3390 H           1 LSW       0.1878
     68 H32        44.1325   12.5483  110.8825 H           1 LSW       0.1099
     69 H33        42.9272   13.2931  106.8484 H           1 LSW       0.0741
     70 H34        40.7437    9.1522  104.1928 H           1 LSW       0.2216
@<TRIPOS>BOND
     1     1     3  ar
     2     4     1   1
     3     1    35  ar
     4     2     4   1
     5    33     2   1
     6     4     5   1
     7     5    23   1
     8    20     6   1
     9    27     7  ar
    10    28     8   2
    11    27     9  ar
    12    11    10  ar
    13    12    10  ar
    14    15    11  ar
    15    16    12  ar
    16    14    13  ar
    17    13    17  ar
    18    18    14  ar
    19    29    15  ar
    20    29    16  ar
    21    17    31  ar
    22    32    18  ar
    23    30    19   2
    24    19    36   1
    25    21    20   1
    26    22    21   1
    27    24    22   1
    28    23    29   1
    29    33    24   1
    30    30    25   1
    31    25    34   1
    32    26    28  am
    33    34    26   1
    34    34    27   1
    35    28    33   1
    36    30    32   1
    37    31    32  ar
    38    31    36   1
    39     2    37   1
    40     2    38   1
    41     4    39   1
    42     5    40   1
    43     5    41   1
    44     6    42   1
    45     6    43   1
    46     6    44   1
    47    10    45   1
    48    11    46   1
    49    12    47   1
    50    13    48   1
    51    14    49   1
    52    15    50   1
    53    16    51   1
    54    17    52   1
    55    18    53   1
    56    19    54   1
    57    20    55   1
    58    20    56   1
    59    21    57   1
    60    21    58   1
    61    22    59   1
    62    22    60   1
    63    23    61   1
    64    23    62   1
    65    24    63   1
    66    24    64   1
    67    25    65   1
    68    25    66   1
    69    26    67   1
    70    33    68   1
    71    34    69   1
    72    36    70   1
@<TRIPOS>SUBSTRUCTURE
     1  LSW      1

