@<TRIPOS>MOLECULE
3l3n_ligand_071
    70    72
SMALL
GAST_HUCK
****
This file was generated by PARSER (from files_GN.cpp)

@<TRIPOS>ATOM
      1 C          44.2832    9.5572  109.3833 C.2         1 LSW       0.0847
      2 N          43.2422   10.4871  111.4771 N.4         1 LSW       0.2599
      3 O          45.4844    9.4016  108.7708 O.co2       1 LSW      -0.5643
      4 CA         44.2414    9.5640  110.8613 C.3         1 LSW       0.0340
      5 CB         44.1201    8.1120  111.4183 C.3         1 LSW       0.0122
      6 NAA        41.2936   15.6598  111.2518 N.4         1 LSW       0.2185
      7 OAC        48.3327   12.6493  110.7958 O.co2       1 LSW      -0.5665
      8 OAD        44.9535   12.2658  109.5968 O.2         1 LSW      -0.3908
      9 OAF        48.0414   13.5480  112.9190 O.co2       1 LSW      -0.5665
     10 CAG        40.8399    6.2253  107.7180 C.ar        1 LSW      -0.0687
     11 CAH        42.2402    6.2417  107.8227 C.ar        1 LSW      -0.0686
     12 CAI        40.0526    6.6202  108.8191 C.ar        1 LSW      -0.0686
     13 CAJ        47.9617   17.5080  116.4137 C.ar        1 LSW      -0.0768
     14 CAK        48.7281   17.4000  115.2310 C.ar        1 LSW      -0.0792
     15 CAL        42.8557    6.6644  109.0174 C.ar        1 LSW      -0.0603
     16 CAM        40.6700    7.0292  110.0140 C.ar        1 LSW      -0.0603
     17 CAN        46.6324   17.0408  116.4377 C.ar        1 LSW      -0.0443
     18 CAO        48.1853   16.7910  114.0816 C.ar        1 LSW      -0.0747
     19 CAP        44.7975   15.5548  113.7713 C.2         1 LSW       0.0166
     20 CAQ        40.1279   15.0811  111.9281 C.3         1 LSW      -0.0354
     21 CAR        40.4686   14.0102  113.0004 C.3         1 LSW      -0.0123
     22 CAS        41.0905   12.6848  112.4682 C.3         1 LSW      -0.0410
     23 CAT        42.7180    7.4391  111.4357 C.3         1 LSW      -0.0125
     24 CAU        42.6367   12.7629  112.3211 C.3         1 LSW       0.0081
     25 CAW        46.2830   15.5923  111.6810 C.3         1 LSW      -0.0013
     26 NAX        45.2724   13.3180  111.5259 N.am        1 LSW      -0.2657
     27 CBB        47.6469   13.4681  111.6293 C.2         1 LSW       0.0613
     28 CBC        44.5662   12.5064  110.7377 C.2         1 LSW       0.2263
     29 CBD        42.0845    7.0738  110.1340 C.ar        1 LSW      -0.0427
     30 CBE        46.0170   15.7850  113.1320 C.2         1 LSW      -0.0424
     31 CBF        46.0934   16.4696  115.2727 C.ar        1 LSW       0.0603
     32 CBG        46.8482   16.3471  114.1056 C.ar        1 LSW      -0.0214
     33 CBI        43.2632   11.9483  111.1429 C.3         1 LSW       0.0683
     34 CBJ        46.4085   14.1225  111.1654 C.3         1 LSW       0.0987
     35 OXT        43.2107    9.8819  108.6294 O.co2       1 LSW      -0.5643
     36 NXZ        44.8692   15.9853  115.0393 N.pl3       1 LSW      -0.2891
     37 H1         43.3474   10.3955  112.4941 H           1 LSW       0.2052
     38 H2         42.3088   10.1382  111.2436 H           1 LSW       0.2052
     39 H3         45.2152    9.9300  111.2009 H           1 LSW       0.1027
     40 H4         44.4695    8.1452  112.4522 H           1 LSW       0.0361
     41 H5         44.8200    7.4554  110.8903 H           1 LSW       0.0361
     42 H6         40.9892   16.4094  110.6255 H           1 LSW       0.1994
     43 H7         41.7545   14.9334  110.6961 H           1 LSW       0.1994
     44 H8         41.9592   16.0438  111.9332 H           1 LSW       0.1994
     45 H9         40.3911    5.9193  106.8497 H           1 LSW       0.0559
     46 H10        42.8162    5.9669  107.0221 H           1 LSW       0.0599
     47 H11        39.0317    6.6086  108.7403 H           1 LSW       0.0599
     48 H12        48.3654   17.9482  117.2416 H           1 LSW       0.0530
     49 H13        49.6928   17.7356  115.2217 H           1 LSW       0.0510
     50 H14        43.8740    6.6728  109.0667 H           1 LSW       0.0557
     51 H15        40.0703    7.2877  110.8035 H           1 LSW       0.0557
     52 H16        46.0756   17.1059  117.2895 H           1 LSW       0.0541
     53 H17        48.7587   16.6686  113.2500 H           1 LSW       0.0540
     54 H18        43.9513   15.1919  113.3343 H           1 LSW       0.0795
     55 H19        39.4697   14.6483  111.1759 H           1 LSW       0.0813
     56 H20        39.5971   15.9020  112.4155 H           1 LSW       0.0813
     57 H21        39.5300   13.7675  113.5193 H           1 LSW       0.0317
     58 H22        41.1279   14.4609  113.7470 H           1 LSW       0.0317
     59 H23        40.6308   12.4206  111.5135 H           1 LSW       0.0270
     60 H24        40.8543   11.8847  113.1736 H           1 LSW       0.0270
     61 H25        42.0463    8.0876  112.0105 H           1 LSW       0.0429
     62 H26        42.8102    6.5159  112.0114 H           1 LSW       0.0429
     63 H27        43.0840   12.4229  113.2633 H           1 LSW       0.0346
     64 H28        42.9131   13.8126  112.1864 H           1 LSW       0.0346
     65 H29        47.1998   16.1212  111.4146 H           1 LSW       0.0390
     66 H30        45.4791   16.0789  111.1243 H           1 LSW       0.0390
     67 H31        44.9514   13.4347  112.4372 H           1 LSW       0.1878
     68 H32        42.5861   12.0823  110.2974 H           1 LSW       0.1099
     69 H33        46.4766   14.1826  110.0751 H           1 LSW       0.0741
     70 H34        44.1274   15.9992  115.6610 H           1 LSW       0.2216
@<TRIPOS>BOND
     1     1     3  ar
     2     4     1   1
     3     1    35  ar
     4     2     4   1
     5    33     2   1
     6     4     5   1
     7     5    23   1
     8    20     6   1
     9    27     7  ar
    10    28     8   2
    11    27     9  ar
    12    11    10  ar
    13    12    10  ar
    14    15    11  ar
    15    16    12  ar
    16    14    13  ar
    17    13    17  ar
    18    18    14  ar
    19    29    15  ar
    20    29    16  ar
    21    17    31  ar
    22    32    18  ar
    23    30    19   2
    24    19    36   1
    25    21    20   1
    26    22    21   1
    27    24    22   1
    28    23    29   1
    29    33    24   1
    30    30    25   1
    31    25    34   1
    32    26    28  am
    33    34    26   1
    34    34    27   1
    35    28    33   1
    36    30    32   1
    37    31    32  ar
    38    31    36   1
    39     2    37   1
    40     2    38   1
    41     4    39   1
    42     5    40   1
    43     5    41   1
    44     6    42   1
    45     6    43   1
    46     6    44   1
    47    10    45   1
    48    11    46   1
    49    12    47   1
    50    13    48   1
    51    14    49   1
    52    15    50   1
    53    16    51   1
    54    17    52   1
    55    18    53   1
    56    19    54   1
    57    20    55   1
    58    20    56   1
    59    21    57   1
    60    21    58   1
    61    22    59   1
    62    22    60   1
    63    23    61   1
    64    23    62   1
    65    24    63   1
    66    24    64   1
    67    25    65   1
    68    25    66   1
    69    26    67   1
    70    33    68   1
    71    34    69   1
    72    36    70   1
@<TRIPOS>SUBSTRUCTURE
     1  LSW      1

