@<TRIPOS>MOLECULE
3l3n_ligand_088
    70    72
SMALL
GAST_HUCK
****
This file was generated by PARSER (from files_GN.cpp)

@<TRIPOS>ATOM
      1 C          40.5717   12.0241  109.0810 C.2         1 LSW       0.0847
      2 N          42.3484   13.0975  110.3165 N.4         1 LSW       0.2599
      3 O          40.0628   10.8173  109.4178 O.co2       1 LSW      -0.5643
      4 CA         40.8748   13.0360  110.1207 C.3         1 LSW       0.0340
      5 CB         40.2112   14.4186  109.8269 C.3         1 LSW       0.0122
      6 NAA        39.2182   16.8069  113.6282 N.4         1 LSW       0.2185
      7 OAC        46.9858   13.3353  109.9600 O.co2       1 LSW      -0.5665
      8 OAD        44.8879   12.6941  110.8861 O.2         1 LSW      -0.3908
      9 OAF        48.7898   13.5478  111.3262 O.co2       1 LSW      -0.5665
     10 CAG        38.9988   19.1031  108.0357 C.ar        1 LSW      -0.0687
     11 CAH        38.2179   18.1137  108.6565 C.ar        1 LSW      -0.0686
     12 CAI        40.2859   18.7864  107.5681 C.ar        1 LSW      -0.0686
     13 CAJ        47.8615   19.3354  116.3186 C.ar        1 LSW      -0.0768
     14 CAK        48.8499   18.6865  115.5471 C.ar        1 LSW      -0.0792
     15 CAL        38.7189   16.8086  108.8056 C.ar        1 LSW      -0.0603
     16 CAM        40.7869   17.4807  107.7163 C.ar        1 LSW      -0.0603
     17 CAN        46.5556   18.8084  116.3856 C.ar        1 LSW      -0.0443
     18 CAO        48.5375   17.5143  114.8245 C.ar        1 LSW      -0.0747
     19 CAP        45.3045   15.8847  114.7802 C.2         1 LSW       0.0166
     20 CAQ        39.8276   15.8825  114.5961 C.3         1 LSW      -0.0354
     21 CAR        41.2065   15.3515  114.1228 C.3         1 LSW      -0.0123
     22 CAS        41.1223   14.0147  113.3426 C.3         1 LSW      -0.0410
     23 CAT        40.5188   15.0742  108.4513 C.3         1 LSW      -0.0125
     24 CAU        42.4985   13.4595  112.8617 C.3         1 LSW       0.0081
     25 CAW        47.1974   14.8320  113.4316 C.3         1 LSW      -0.0013
     26 NAX        45.2455   14.6496  111.8798 N.am        1 LSW      -0.2657
     27 CBB        47.4590   13.7302  111.1611 C.2         1 LSW       0.0613
     28 CBC        44.4357   13.7438  111.3350 C.2         1 LSW       0.2263
     29 CBD        40.0098   16.4697  108.3340 C.ar        1 LSW      -0.0427
     30 CBE        46.6103   15.8877  114.2922 C.2         1 LSW      -0.0424
     31 CBF        46.2664   17.6330  115.6702 C.ar        1 LSW       0.0603
     32 CBG        47.2279   16.9948  114.8818 C.ar        1 LSW      -0.0214
     33 CBI        42.9766   13.8884  111.4280 C.3         1 LSW       0.0683
     34 CBJ        46.6949   14.7404  111.9495 C.3         1 LSW       0.0987
     35 OXT        40.9401   12.2108  107.7916 O.co2       1 LSW      -0.5643
     36 NXZ        45.1248   16.9361  115.5964 N.pl3       1 LSW      -0.2891
     37 H1         42.7569   13.4239  109.4369 H           1 LSW       0.2052
     38 H2         42.6508   12.1278  110.4512 H           1 LSW       0.2052
     39 H3         40.4380   12.6468  111.0412 H           1 LSW       0.1027
     40 H4         40.5042   15.1254  110.6054 H           1 LSW       0.0361
     41 H5         39.1289   14.2865  109.9151 H           1 LSW       0.0361
     42 H6         38.3279   17.1520  113.9897 H           1 LSW       0.1994
     43 H7         39.0246   16.3419  112.7412 H           1 LSW       0.1994
     44 H8         39.8451   17.5984  113.4701 H           1 LSW       0.1994
     45 H9         38.6303   20.0509  107.9227 H           1 LSW       0.0559
     46 H10        37.2795   18.3346  108.9993 H           1 LSW       0.0599
     47 H11        40.8557   19.5057  107.1155 H           1 LSW       0.0599
     48 H12        48.0949   20.1868  116.8340 H           1 LSW       0.0530
     49 H13        49.7985   19.0712  115.5095 H           1 LSW       0.0510
     50 H14        38.1244   16.1089  109.2531 H           1 LSW       0.0557
     51 H15        41.7222   17.2691  107.3560 H           1 LSW       0.0557
     52 H16        45.8358   19.2723  116.9453 H           1 LSW       0.0541
     53 H17        49.2567   17.0596  114.2624 H           1 LSW       0.0540
     54 H18        44.5920   15.1892  114.5675 H           1 LSW       0.0795
     55 H19        39.1381   15.0549  114.7820 H           1 LSW       0.0813
     56 H20        39.9564   16.4304  115.5357 H           1 LSW       0.0813
     57 H21        41.8337   15.1994  115.0046 H           1 LSW       0.0317
     58 H22        41.6806   16.1124  113.5021 H           1 LSW       0.0317
     59 H23        40.4394   14.1412  112.5099 H           1 LSW       0.0270
     60 H24        40.6751   13.2682  114.0008 H           1 LSW       0.0270
     61 H25        40.0497   14.4835  107.6610 H           1 LSW       0.0429
     62 H26        41.6000   15.0438  108.2873 H           1 LSW       0.0429
     63 H27        42.4638   12.3665  112.8888 H           1 LSW       0.0346
     64 H28        43.2385   13.7521  113.6165 H           1 LSW       0.0346
     65 H29        47.0391   13.8697  113.9235 H           1 LSW       0.0390
     66 H30        48.2729   14.9974  113.4262 H           1 LSW       0.0390
     67 H31        44.7838   15.3961  112.2930 H           1 LSW       0.1878
     68 H32        42.7340   14.9445  111.2622 H           1 LSW       0.1099
     69 H33        46.9402   15.6964  111.4844 H           1 LSW       0.0741
     70 H34        44.2971   17.1577  116.0478 H           1 LSW       0.2216
@<TRIPOS>BOND
     1     1     3  ar
     2     4     1   1
     3     1    35  ar
     4     2     4   1
     5    33     2   1
     6     4     5   1
     7     5    23   1
     8    20     6   1
     9    27     7  ar
    10    28     8   2
    11    27     9  ar
    12    11    10  ar
    13    12    10  ar
    14    15    11  ar
    15    16    12  ar
    16    14    13  ar
    17    13    17  ar
    18    18    14  ar
    19    29    15  ar
    20    29    16  ar
    21    17    31  ar
    22    32    18  ar
    23    30    19   2
    24    19    36   1
    25    21    20   1
    26    22    21   1
    27    24    22   1
    28    23    29   1
    29    33    24   1
    30    30    25   1
    31    25    34   1
    32    26    28  am
    33    34    26   1
    34    34    27   1
    35    28    33   1
    36    30    32   1
    37    31    32  ar
    38    31    36   1
    39     2    37   1
    40     2    38   1
    41     4    39   1
    42     5    40   1
    43     5    41   1
    44     6    42   1
    45     6    43   1
    46     6    44   1
    47    10    45   1
    48    11    46   1
    49    12    47   1
    50    13    48   1
    51    14    49   1
    52    15    50   1
    53    16    51   1
    54    17    52   1
    55    18    53   1
    56    19    54   1
    57    20    55   1
    58    20    56   1
    59    21    57   1
    60    21    58   1
    61    22    59   1
    62    22    60   1
    63    23    61   1
    64    23    62   1
    65    24    63   1
    66    24    64   1
    67    25    65   1
    68    25    66   1
    69    26    67   1
    70    33    68   1
    71    34    69   1
    72    36    70   1
@<TRIPOS>SUBSTRUCTURE
     1  LSW      1

