@<TRIPOS>MOLECULE
3l3n_ligand_070
    70    72
SMALL
GAST_HUCK
****
This file was generated by PARSER (from files_GN.cpp)

@<TRIPOS>ATOM
      1 C          41.6764   11.9272  107.5138 C.2         1 LSW       0.0847
      2 N          40.8331   14.3094  107.4794 N.4         1 LSW       0.2599
      3 O          41.8189   11.0014  108.4894 O.co2       1 LSW      -0.5643
      4 CA         40.5088   12.8444  107.5138 C.3         1 LSW       0.0340
      5 CB         39.5179   12.5260  106.3498 C.3         1 LSW       0.0122
      6 NAA        44.3202   19.5523  105.1097 N.4         1 LSW       0.2185
      7 OAC        47.1152   13.3988  110.1312 O.co2       1 LSW      -0.5665
      8 OAD        41.9169   14.2765  110.0730 O.2         1 LSW      -0.3908
      9 OAF        46.0773   15.3356  110.8796 O.co2       1 LSW      -0.5665
     10 CAG        41.5780    7.7577  105.4550 C.ar        1 LSW      -0.0687
     11 CAH        41.8664    9.0296  104.9287 C.ar        1 LSW      -0.0686
     12 CAI        40.4061    7.5602  106.2023 C.ar        1 LSW      -0.0686
     13 CAJ        43.1504    7.0645  111.9446 C.ar        1 LSW      -0.0768
     14 CAK        44.1794    7.3864  111.0288 C.ar        1 LSW      -0.0792
     15 CAL        40.9705   10.0966  105.1332 C.ar        1 LSW      -0.0603
     16 CAM        39.5468    8.6490  106.4639 C.ar        1 LSW      -0.0603
     17 CAN        42.3493    8.0818  112.5021 C.ar        1 LSW      -0.0443
     18 CAO        44.4157    8.7255  110.6597 C.ar        1 LSW      -0.0747
     19 CAP        42.5887   11.5825  111.9046 C.2         1 LSW       0.0166
     20 CAQ        43.4902   18.3430  105.1570 C.3         1 LSW      -0.0354
     21 CAR        42.3387   18.4559  106.1937 C.3         1 LSW      -0.0123
     22 CAS        41.6742   17.0843  106.5325 C.3         1 LSW      -0.0410
     23 CAT        38.9188   11.0868  106.2644 C.3         1 LSW      -0.0125
     24 CAU        42.2151   16.4043  107.8286 C.3         1 LSW       0.0081
     25 CAW        44.6222   11.8705  110.2657 C.3         1 LSW      -0.0013
     26 NAX        43.9658   14.0201  109.2354 N.am        1 LSW      -0.2657
     27 CBB        45.9740   14.0608  110.4401 C.2         1 LSW       0.0613
     28 CBC        42.6861   14.3549  109.1244 C.2         1 LSW       0.2263
     29 CBD        39.8336    9.9415  105.9627 C.ar        1 LSW      -0.0427
     30 CBE        43.6211   11.1238  111.0745 C.2         1 LSW      -0.0424
     31 CBF        42.5958    9.4119  112.1246 C.ar        1 LSW       0.0603
     32 CBG        43.6077    9.7360  111.2170 C.ar        1 LSW      -0.0214
     33 CBI        42.1808   14.8470  107.8431 C.3         1 LSW       0.0683
     34 CBJ        44.6286   13.4384  110.3702 C.3         1 LSW       0.0987
     35 OXT        42.6617   12.0342  106.5920 O.co2       1 LSW      -0.5643
     36 NXZ        42.0013   10.5448  112.5180 N.pl3       1 LSW      -0.2891
     37 H1         40.1476   14.7765  108.0782 H           1 LSW       0.2052
     38 H2         40.6370   14.6200  106.5258 H           1 LSW       0.2052
     39 H3         39.9669   12.6753  108.4479 H           1 LSW       0.1027
     40 H4         39.9886   12.7842  105.3948 H           1 LSW       0.0361
     41 H5         38.6692   13.2063  106.4684 H           1 LSW       0.0361
     42 H6         44.8765   19.5460  104.2512 H           1 LSW       0.1994
     43 H7         44.9466   19.5612  105.9172 H           1 LSW       0.1994
     44 H8         43.7379   20.3910  105.1275 H           1 LSW       0.1994
     45 H9         42.2194    6.9731  105.2900 H           1 LSW       0.0559
     46 H10        42.7222    9.1697  104.3896 H           1 LSW       0.0599
     47 H11        40.1819    6.6297  106.5661 H           1 LSW       0.0599
     48 H12        42.9873    6.0898  112.2097 H           1 LSW       0.0530
     49 H13        44.7617    6.6462  110.6320 H           1 LSW       0.0510
     50 H14        41.1743   11.0026  104.7099 H           1 LSW       0.0557
     51 H15        38.7090    8.4815  107.0243 H           1 LSW       0.0557
     52 H16        41.6090    7.8567  113.1719 H           1 LSW       0.0541
     53 H17        45.1657    8.9542  110.0040 H           1 LSW       0.0540
     54 H18        42.3169   12.5511  112.0683 H           1 LSW       0.0795
     55 H19        44.1402   17.4972  105.3954 H           1 LSW       0.0813
     56 H20        43.0632   18.1781  104.1655 H           1 LSW       0.0813
     57 H21        41.5817   19.1315  105.7827 H           1 LSW       0.0317
     58 H22        42.7133   18.9203  107.1094 H           1 LSW       0.0317
     59 H23        41.7804   16.4133  105.6768 H           1 LSW       0.0270
     60 H24        40.6015   17.2511  106.6709 H           1 LSW       0.0270
     61 H25        38.1570   11.0992  105.4832 H           1 LSW       0.0429
     62 H26        38.3964   10.9068  107.2051 H           1 LSW       0.0429
     63 H27        41.6339   16.7857  108.6740 H           1 LSW       0.0346
     64 H28        43.2542   16.7131  107.9809 H           1 LSW       0.0346
     65 H29        44.4973   11.5679  109.2233 H           1 LSW       0.0390
     66 H30        45.5916   11.4790  110.5785 H           1 LSW       0.0390
     67 H31        44.5083   14.1226  108.4389 H           1 LSW       0.1878
     68 H32        42.8594   14.5357  107.0452 H           1 LSW       0.1099
     69 H33        44.1381   13.7524  111.2960 H           1 LSW       0.0741
     70 H34        41.2736   10.6084  113.1587 H           1 LSW       0.2216
@<TRIPOS>BOND
     1     1     3  ar
     2     4     1   1
     3     1    35  ar
     4     2     4   1
     5    33     2   1
     6     4     5   1
     7     5    23   1
     8    20     6   1
     9    27     7  ar
    10    28     8   2
    11    27     9  ar
    12    11    10  ar
    13    12    10  ar
    14    15    11  ar
    15    16    12  ar
    16    14    13  ar
    17    13    17  ar
    18    18    14  ar
    19    29    15  ar
    20    29    16  ar
    21    17    31  ar
    22    32    18  ar
    23    30    19   2
    24    19    36   1
    25    21    20   1
    26    22    21   1
    27    24    22   1
    28    23    29   1
    29    33    24   1
    30    30    25   1
    31    25    34   1
    32    26    28  am
    33    34    26   1
    34    34    27   1
    35    28    33   1
    36    30    32   1
    37    31    32  ar
    38    31    36   1
    39     2    37   1
    40     2    38   1
    41     4    39   1
    42     5    40   1
    43     5    41   1
    44     6    42   1
    45     6    43   1
    46     6    44   1
    47    10    45   1
    48    11    46   1
    49    12    47   1
    50    13    48   1
    51    14    49   1
    52    15    50   1
    53    16    51   1
    54    17    52   1
    55    18    53   1
    56    19    54   1
    57    20    55   1
    58    20    56   1
    59    21    57   1
    60    21    58   1
    61    22    59   1
    62    22    60   1
    63    23    61   1
    64    23    62   1
    65    24    63   1
    66    24    64   1
    67    25    65   1
    68    25    66   1
    69    26    67   1
    70    33    68   1
    71    34    69   1
    72    36    70   1
@<TRIPOS>SUBSTRUCTURE
     1  LSW      1

