@<TRIPOS>MOLECULE
3l3n_ligand_079
    70    72
SMALL
GAST_HUCK
****
This file was generated by PARSER (from files_GN.cpp)

@<TRIPOS>ATOM
      1 C          43.5111   13.4500  107.7816 C.2         1 LSW       0.0847
      2 N          41.7072   14.3254  109.3655 N.4         1 LSW       0.2599
      3 O          44.4880   14.1534  107.1603 O.co2       1 LSW      -0.5643
      4 CA         43.1031   13.8319  109.1558 C.3         1 LSW       0.0340
      5 CB         43.3942   12.6394  110.1279 C.3         1 LSW       0.0122
      6 NAA        43.0765   19.6178  104.9313 N.4         1 LSW       0.2185
      7 OAC        39.9419   12.5424  104.1762 O.co2       1 LSW      -0.5665
      8 OAD        41.3253   13.9558  106.3553 O.2         1 LSW      -0.3908
      9 OAF        37.9028   13.5394  104.6357 O.co2       1 LSW      -0.5665
     10 CAG        44.5132    7.5862  109.7125 C.ar        1 LSW      -0.0687
     11 CAH        44.1866    8.2771  108.5338 C.ar        1 LSW      -0.0686
     12 CAI        44.1947    8.1452  110.9623 C.ar        1 LSW      -0.0686
     13 CAJ        39.9215    7.5206  109.6760 C.ar        1 LSW      -0.0768
     14 CAK        40.1048    8.9017  109.9116 C.ar        1 LSW      -0.0792
     15 CAL        43.5276    9.5167  108.6053 C.ar        1 LSW      -0.0603
     16 CAM        43.5525    9.3953  111.0354 C.ar        1 LSW      -0.0603
     17 CAN        39.0902    7.0796  108.6258 C.ar        1 LSW      -0.0443
     18 CAO        39.4698    9.8565  109.0883 C.ar        1 LSW      -0.0747
     19 CAP        37.2714    9.0994  106.3195 C.2         1 LSW       0.0166
     20 CAQ        41.9663   19.0289  105.6931 C.3         1 LSW      -0.0354
     21 CAR        42.0332   17.4757  105.6974 C.3         1 LSW      -0.0123
     22 CAS        42.4007   16.8174  107.0586 C.3         1 LSW      -0.0410
     23 CAT        42.4769   11.3875  109.9343 C.3         1 LSW      -0.0125
     24 CAU        41.1992   16.5093  108.0112 C.3         1 LSW       0.0081
     25 CAW        37.7424   11.5577  106.9436 C.3         1 LSW      -0.0013
     26 NAX        39.3997   13.3976  107.2947 N.am        1 LSW      -0.2657
     27 CBB        38.9073   12.7170  105.0265 C.2         1 LSW       0.0613
     28 CBC        40.5178   14.1201  107.2556 C.2         1 LSW       0.2263
     29 CBD        43.2053   10.0947  109.8572 C.ar        1 LSW      -0.0427
     30 CBE        37.8935   10.0913  107.0843 C.2         1 LSW      -0.0424
     31 CBF        38.4632    8.0429  107.8169 C.ar        1 LSW       0.0603
     32 CBG        38.6510    9.4111  108.0348 C.ar        1 LSW      -0.0214
     33 CBI        40.8441   15.0209  108.3627 C.3         1 LSW       0.0683
     34 CBJ        39.0373   12.2913  106.4440 C.3         1 LSW       0.0987
     35 OXT        43.1358   12.2841  107.2099 O.co2       1 LSW      -0.5643
     36 NXZ        37.6281    7.8881  106.7802 N.pl3       1 LSW      -0.2891
     37 H1         41.7700   14.9679  110.1651 H           1 LSW       0.2052
     38 H2         41.1492   13.5302  109.6955 H           1 LSW       0.2052
     39 H3         43.7495   14.6576  109.4637 H           1 LSW       0.1027
     40 H4         43.2679   13.0024  111.1554 H           1 LSW       0.0361
     41 H5         44.4504   12.3607  110.0370 H           1 LSW       0.0361
     42 H6         42.9943   20.6340  104.9389 H           1 LSW       0.1994
     43 H7         43.0530   19.2822  103.9649 H           1 LSW       0.1994
     44 H8         43.9622   19.3532  105.3675 H           1 LSW       0.1994
     45 H9         44.9760    6.6775  109.6594 H           1 LSW       0.0559
     46 H10        44.4129    7.8701  107.6217 H           1 LSW       0.0599
     47 H11        44.4198    7.6372  111.8208 H           1 LSW       0.0599
     48 H12        40.3902    6.8396  110.2740 H           1 LSW       0.0530
     49 H13        40.6923    9.2085  110.6877 H           1 LSW       0.0510
     50 H14        43.2819    9.9928  107.7344 H           1 LSW       0.0557
     51 H15        43.3173    9.7823  111.9521 H           1 LSW       0.0557
     52 H16        38.9420    6.0815  108.4563 H           1 LSW       0.0541
     53 H17        39.6006   10.8541  109.2634 H           1 LSW       0.0540
     54 H18        36.6336    9.2607  105.5360 H           1 LSW       0.0795
     55 H19        41.0326   19.3591  105.2323 H           1 LSW       0.0813
     56 H20        41.9904   19.4250  106.7109 H           1 LSW       0.0813
     57 H21        42.7783   17.1578  104.9608 H           1 LSW       0.0317
     58 H22        41.0765   17.0664  105.3557 H           1 LSW       0.0317
     59 H23        43.1283   17.4569  107.5707 H           1 LSW       0.0270
     60 H24        42.9136   15.8993  106.8177 H           1 LSW       0.0270
     61 H25        41.8713   11.4946  109.0361 H           1 LSW       0.0429
     62 H26        41.7628   11.3476  110.7579 H           1 LSW       0.0429
     63 H27        40.2956   16.9624  107.5878 H           1 LSW       0.0346
     64 H28        41.3820   17.0341  108.9576 H           1 LSW       0.0346
     65 H29        37.4333   11.9472  107.9142 H           1 LSW       0.0390
     66 H30        36.8966   11.7505  106.2778 H           1 LSW       0.0390
     67 H31        38.8036   13.5794  108.0388 H           1 LSW       0.1878
     68 H32        39.9076   15.1349  108.9236 H           1 LSW       0.1099
     69 H33        39.8860   11.5927  106.4964 H           1 LSW       0.0741
     70 H34        37.3204    7.0351  106.4316 H           1 LSW       0.2216
@<TRIPOS>BOND
     1     1     3  ar
     2     4     1   1
     3     1    35  ar
     4     2     4   1
     5    33     2   1
     6     4     5   1
     7     5    23   1
     8    20     6   1
     9    27     7  ar
    10    28     8   2
    11    27     9  ar
    12    11    10  ar
    13    12    10  ar
    14    15    11  ar
    15    16    12  ar
    16    14    13  ar
    17    13    17  ar
    18    18    14  ar
    19    29    15  ar
    20    29    16  ar
    21    17    31  ar
    22    32    18  ar
    23    30    19   2
    24    19    36   1
    25    21    20   1
    26    22    21   1
    27    24    22   1
    28    23    29   1
    29    33    24   1
    30    30    25   1
    31    25    34   1
    32    26    28  am
    33    34    26   1
    34    34    27   1
    35    28    33   1
    36    30    32   1
    37    31    32  ar
    38    31    36   1
    39     2    37   1
    40     2    38   1
    41     4    39   1
    42     5    40   1
    43     5    41   1
    44     6    42   1
    45     6    43   1
    46     6    44   1
    47    10    45   1
    48    11    46   1
    49    12    47   1
    50    13    48   1
    51    14    49   1
    52    15    50   1
    53    16    51   1
    54    17    52   1
    55    18    53   1
    56    19    54   1
    57    20    55   1
    58    20    56   1
    59    21    57   1
    60    21    58   1
    61    22    59   1
    62    22    60   1
    63    23    61   1
    64    23    62   1
    65    24    63   1
    66    24    64   1
    67    25    65   1
    68    25    66   1
    69    26    67   1
    70    33    68   1
    71    34    69   1
    72    36    70   1
@<TRIPOS>SUBSTRUCTURE
     1  LSW      1

