@<TRIPOS>MOLECULE
3l3n_ligand_056
    70    72
SMALL
GAST_HUCK
****
This file was generated by PARSER (from files_GN.cpp)

@<TRIPOS>ATOM
      1 C          43.6696   10.5962  110.8697 C.2         1 LSW       0.0847
      2 N          42.0748   12.5243  110.8327 N.4         1 LSW       0.2599
      3 O          44.0827    9.3832  111.3051 O.co2       1 LSW      -0.5643
      4 CA         42.3954   11.1646  111.3667 C.3         1 LSW       0.0340
      5 CB         41.1968   10.2044  111.0791 C.3         1 LSW       0.0122
      6 NAA        38.9396   16.7895  114.8609 N.4         1 LSW       0.2185
      7 OAC        46.7277   12.3336  110.5160 O.co2       1 LSW      -0.5665
      8 OAD        44.2470   13.9532  109.7588 O.2         1 LSW      -0.3908
      9 OAF        48.5698   13.3354  111.4422 O.co2       1 LSW      -0.5665
     10 CAG        43.0518    6.5654  107.8867 C.ar        1 LSW      -0.0687
     11 CAH        41.9285    6.3381  108.7024 C.ar        1 LSW      -0.0686
     12 CAI        43.4725    7.8805  107.6258 C.ar        1 LSW      -0.0686
     13 CAJ        47.1460   18.1376  117.0143 C.ar        1 LSW      -0.0768
     14 CAK        46.8533   18.7373  115.7696 C.ar        1 LSW      -0.0792
     15 CAL        41.2338    7.4260  109.2640 C.ar        1 LSW      -0.0603
     16 CAM        42.7625    8.9673  108.1662 C.ar        1 LSW      -0.0603
     17 CAN        47.4401   16.7602  117.0882 C.ar        1 LSW      -0.0443
     18 CAO        46.8384   17.9636  114.5886 C.ar        1 LSW      -0.0747
     19 CAP        47.6131   14.4289  114.4113 C.2         1 LSW       0.0166
     20 CAQ        39.1915   15.6500  113.9762 C.3         1 LSW      -0.0354
     21 CAR        40.4143   14.8118  114.4382 C.3         1 LSW      -0.0123
     22 CAS        40.9061   13.8125  113.3406 C.3         1 LSW      -0.0410
     23 CAT        40.8766    9.9003  109.5812 C.3         1 LSW      -0.0125
     24 CAU        42.4086   13.9622  112.9353 C.3         1 LSW       0.0081
     25 CAW        47.0748   15.7219  112.2326 C.3         1 LSW      -0.0013
     26 NAX        45.0696   14.3026  111.7865 N.am        1 LSW      -0.2657
     27 CBB        47.2262   13.3369  111.2728 C.2         1 LSW       0.0613
     28 CBC        44.0599   13.9837  110.9701 C.2         1 LSW       0.2263
     29 CBD        41.6409    8.7574  109.0055 C.ar        1 LSW      -0.0427
     30 CBE        47.2033   15.5673  113.7055 C.2         1 LSW      -0.0424
     31 CBF        47.4233   16.0068  115.9038 C.ar        1 LSW       0.0603
     32 CBG        47.1135   16.5816  114.6680 C.ar        1 LSW      -0.0214
     33 CBI        42.6788   13.7675  111.4092 C.3         1 LSW       0.0683
     34 CBJ        46.4274   14.5828  111.3862 C.3         1 LSW       0.0987
     35 OXT        44.3625   11.1739  109.8617 O.co2       1 LSW      -0.5643
     36 NXZ        47.7180   14.7154  115.7186 N.pl3       1 LSW      -0.2891
     37 H1         41.0620   12.6378  110.9214 H           1 LSW       0.2052
     38 H2         42.2734   12.5162  109.8288 H           1 LSW       0.2052
     39 H3         42.4793   11.2239  112.4527 H           1 LSW       0.1027
     40 H4         40.3046   10.6573  111.5216 H           1 LSW       0.0361
     41 H5         41.3451    9.2646  111.6172 H           1 LSW       0.0361
     42 H6         38.1451   17.3215  114.4972 H           1 LSW       0.1994
     43 H7         39.7657   17.3918  114.8870 H           1 LSW       0.1994
     44 H8         38.7282   16.4615  115.8055 H           1 LSW       0.1994
     45 H9         43.5590    5.7756  107.4810 H           1 LSW       0.0559
     46 H10        41.6126    5.3818  108.8821 H           1 LSW       0.0599
     47 H11        44.2923    8.0471  107.0361 H           1 LSW       0.0599
     48 H12        47.1602   18.7060  117.8638 H           1 LSW       0.0530
     49 H13        46.6568   19.7380  115.7219 H           1 LSW       0.0510
     50 H14        40.4159    7.2387  109.8514 H           1 LSW       0.0557
     51 H15        43.0735    9.9146  107.9469 H           1 LSW       0.0557
     52 H16        47.6707   16.3214  117.9816 H           1 LSW       0.0541
     53 H17        46.6459   18.4083  113.6906 H           1 LSW       0.0540
     54 H18        47.8325   13.5195  114.0110 H           1 LSW       0.0795
     55 H19        39.3679   16.0537  112.9770 H           1 LSW       0.0813
     56 H20        38.2977   15.0194  113.9495 H           1 LSW       0.0813
     57 H21        40.1379   14.2575  115.3424 H           1 LSW       0.0317
     58 H22        41.2124   15.5027  114.7232 H           1 LSW       0.0317
     59 H23        40.2784   13.9160  112.4511 H           1 LSW       0.0270
     60 H24        40.7480   12.7904  113.6930 H           1 LSW       0.0270
     61 H25        41.0353   10.8025  108.9837 H           1 LSW       0.0429
     62 H26        39.8076    9.6711  109.4932 H           1 LSW       0.0429
     63 H27        43.0127   13.2548  113.5109 H           1 LSW       0.0346
     64 H28        42.7582   14.9655  113.1914 H           1 LSW       0.0346
     65 H29        48.0798   15.8958  111.8463 H           1 LSW       0.0390
     66 H30        46.5059   16.6332  112.0352 H           1 LSW       0.0390
     67 H31        44.8706   14.3852  112.7322 H           1 LSW       0.1878
     68 H32        42.1155   14.5762  110.9290 H           1 LSW       0.1099
     69 H33        46.4007   14.9914  110.3761 H           1 LSW       0.0741
     70 H34        47.9953   14.0999  116.4090 H           1 LSW       0.2216
@<TRIPOS>BOND
     1     1     3  ar
     2     4     1   1
     3     1    35  ar
     4     2     4   1
     5    33     2   1
     6     4     5   1
     7     5    23   1
     8    20     6   1
     9    27     7  ar
    10    28     8   2
    11    27     9  ar
    12    11    10  ar
    13    12    10  ar
    14    15    11  ar
    15    16    12  ar
    16    14    13  ar
    17    13    17  ar
    18    18    14  ar
    19    29    15  ar
    20    29    16  ar
    21    17    31  ar
    22    32    18  ar
    23    30    19   2
    24    19    36   1
    25    21    20   1
    26    22    21   1
    27    24    22   1
    28    23    29   1
    29    33    24   1
    30    30    25   1
    31    25    34   1
    32    26    28  am
    33    34    26   1
    34    34    27   1
    35    28    33   1
    36    30    32   1
    37    31    32  ar
    38    31    36   1
    39     2    37   1
    40     2    38   1
    41     4    39   1
    42     5    40   1
    43     5    41   1
    44     6    42   1
    45     6    43   1
    46     6    44   1
    47    10    45   1
    48    11    46   1
    49    12    47   1
    50    13    48   1
    51    14    49   1
    52    15    50   1
    53    16    51   1
    54    17    52   1
    55    18    53   1
    56    19    54   1
    57    20    55   1
    58    20    56   1
    59    21    57   1
    60    21    58   1
    61    22    59   1
    62    22    60   1
    63    23    61   1
    64    23    62   1
    65    24    63   1
    66    24    64   1
    67    25    65   1
    68    25    66   1
    69    26    67   1
    70    33    68   1
    71    34    69   1
    72    36    70   1
@<TRIPOS>SUBSTRUCTURE
     1  LSW      1

