@<TRIPOS>MOLECULE
3l3n_ligand_009
    70    72
SMALL
GAST_HUCK
****
This file was generated by PARSER (from files_GN.cpp)

@<TRIPOS>ATOM
      1 C          41.5818   11.1599  105.4225 C.2         1 LSW       0.0847
      2 N          41.3114   11.6150  107.8076 N.4         1 LSW       0.2599
      3 O          42.7542   10.9316  104.7875 O.co2       1 LSW      -0.5643
      4 CA         41.3056   10.5627  106.7496 C.3         1 LSW       0.0340
      5 CB         39.9296    9.8310  106.7363 C.3         1 LSW       0.0122
      6 NAA        45.5161   14.7304  111.8758 N.4         1 LSW       0.2185
      7 OAC        45.1795    7.2963  110.0250 O.co2       1 LSW      -0.5665
      8 OAD        44.7694   11.4818  108.6450 O.2         1 LSW      -0.3908
      9 OAF        45.7178    9.1190  108.7788 O.co2       1 LSW      -0.5665
     10 CAG        36.6403    8.7896  102.8534 C.ar        1 LSW      -0.0687
     11 CAH        36.3887    9.1180  104.2000 C.ar        1 LSW      -0.0686
     12 CAI        37.9272    8.3762  102.4640 C.ar        1 LSW      -0.0686
     13 CAJ        40.1348    5.6554  107.7823 C.ar        1 LSW      -0.0768
     14 CAK        41.5366    5.6401  107.9433 C.ar        1 LSW      -0.0792
     15 CAL        37.4256    9.0473  105.1461 C.ar        1 LSW      -0.0603
     16 CAM        38.9711    8.3383  103.4035 C.ar        1 LSW      -0.0603
     17 CAN        39.3319    6.4855  108.5901 C.ar        1 LSW      -0.0443
     18 CAO        42.1503    6.4592  108.9143 C.ar        1 LSW      -0.0747
     19 CAP        40.3992    8.6655  111.1887 C.2         1 LSW       0.0166
     20 CAQ        44.0517   14.6382  111.8102 C.3         1 LSW      -0.0354
     21 CAR        43.5624   13.1988  111.4789 C.3         1 LSW      -0.0123
     22 CAS        42.2309   13.1621  110.6713 C.3         1 LSW      -0.0410
     23 CAT        39.8360    8.6005  105.7676 C.3         1 LSW      -0.0125
     24 CAU        42.3994   13.4409  109.1418 C.3         1 LSW       0.0081
     25 CAW        42.9466    8.5783  111.3381 C.3         1 LSW      -0.0013
     26 NAX        43.1471   10.3083  109.6076 N.am        1 LSW      -0.2657
     27 CBB        44.8045    8.5164  109.5656 C.2         1 LSW       0.0613
     28 CBC        43.5756   11.2589  108.7881 C.2         1 LSW       0.2263
     29 CBD        38.7418    8.6805  104.7594 C.ar        1 LSW      -0.0427
     30 CBE        41.6356    8.1707  110.7677 C.2         1 LSW      -0.0424
     31 CBF        39.9606    7.2843  109.5619 C.ar        1 LSW       0.0603
     32 CBG        41.3475    7.2780  109.7315 C.ar        1 LSW      -0.0214
     33 CBI        42.6289   12.2051  108.2123 C.3         1 LSW       0.0683
     34 CBJ        43.9166    9.3744  110.3944 C.3         1 LSW       0.0987
     35 OXT        40.6481   11.9178  104.8064 O.co2       1 LSW      -0.5643
     36 NXZ        39.4182    8.1289  110.4459 N.pl3       1 LSW      -0.2891
     37 H1         40.8661   11.2263  108.6417 H           1 LSW       0.2052
     38 H2         40.7129   12.3758  107.4752 H           1 LSW       0.2052
     39 H3         42.0761    9.8218  106.9885 H           1 LSW       0.1027
     40 H4         39.1471   10.5686  106.5159 H           1 LSW       0.0361
     41 H5         39.7321    9.4697  107.7558 H           1 LSW       0.0361
     42 H6         45.7904   15.6776  112.1441 H           1 LSW       0.1994
     43 H7         45.9158   14.5142  110.9568 H           1 LSW       0.1994
     44 H8         45.8800   14.0664  112.5596 H           1 LSW       0.1994
     45 H9         35.8854    8.8312  102.1657 H           1 LSW       0.0559
     46 H10        35.4512    9.4094  104.4845 H           1 LSW       0.0599
     47 H11        38.1058    8.1112  101.4900 H           1 LSW       0.0599
     48 H12        39.7038    5.0615  107.0736 H           1 LSW       0.0530
     49 H13        42.1155    5.0220  107.3641 H           1 LSW       0.0510
     50 H14        37.2185    9.2783  106.1217 H           1 LSW       0.0557
     51 H15        39.9023    8.0408  103.0909 H           1 LSW       0.0557
     52 H16        38.3195    6.5127  108.4678 H           1 LSW       0.0541
     53 H17        43.1609    6.4205  109.0458 H           1 LSW       0.0540
     54 H18        40.2565    9.3503  111.9306 H           1 LSW       0.0795
     55 H19        43.7237   15.3547  111.0526 H           1 LSW       0.0813
     56 H20        43.6434   14.9463  112.7734 H           1 LSW       0.0813
     57 H21        43.4215   12.6604  112.4197 H           1 LSW       0.0317
     58 H22        44.3411   12.6719  110.9245 H           1 LSW       0.0317
     59 H23        41.5492   13.9055  111.0969 H           1 LSW       0.0270
     60 H24        41.7562   12.1890  110.8100 H           1 LSW       0.0270
     61 H25        39.6599    7.6959  106.3569 H           1 LSW       0.0429
     62 H26        40.7952    8.4543  105.2630 H           1 LSW       0.0429
     63 H27        43.2249   14.1437  108.9929 H           1 LSW       0.0346
     64 H28        41.4970   13.9599  108.7930 H           1 LSW       0.0346
     65 H29        43.4312    7.6882  111.7382 H           1 LSW       0.0390
     66 H30        42.7378    9.2161  112.2038 H           1 LSW       0.0390
     67 H31        42.1857   10.2716  109.7288 H           1 LSW       0.1878
     68 H32        43.0778   12.6071  107.2992 H           1 LSW       0.1099
     69 H33        44.5690    9.9599  111.0483 H           1 LSW       0.0741
     70 H34        38.4706    8.3212  110.5378 H           1 LSW       0.2216
@<TRIPOS>BOND
     1     1     3  ar
     2     4     1   1
     3     1    35  ar
     4     2     4   1
     5    33     2   1
     6     4     5   1
     7     5    23   1
     8    20     6   1
     9    27     7  ar
    10    28     8   2
    11    27     9  ar
    12    11    10  ar
    13    12    10  ar
    14    15    11  ar
    15    16    12  ar
    16    14    13  ar
    17    13    17  ar
    18    18    14  ar
    19    29    15  ar
    20    29    16  ar
    21    17    31  ar
    22    32    18  ar
    23    30    19   2
    24    19    36   1
    25    21    20   1
    26    22    21   1
    27    24    22   1
    28    23    29   1
    29    33    24   1
    30    30    25   1
    31    25    34   1
    32    26    28  am
    33    34    26   1
    34    34    27   1
    35    28    33   1
    36    30    32   1
    37    31    32  ar
    38    31    36   1
    39     2    37   1
    40     2    38   1
    41     4    39   1
    42     5    40   1
    43     5    41   1
    44     6    42   1
    45     6    43   1
    46     6    44   1
    47    10    45   1
    48    11    46   1
    49    12    47   1
    50    13    48   1
    51    14    49   1
    52    15    50   1
    53    16    51   1
    54    17    52   1
    55    18    53   1
    56    19    54   1
    57    20    55   1
    58    20    56   1
    59    21    57   1
    60    21    58   1
    61    22    59   1
    62    22    60   1
    63    23    61   1
    64    23    62   1
    65    24    63   1
    66    24    64   1
    67    25    65   1
    68    25    66   1
    69    26    67   1
    70    33    68   1
    71    34    69   1
    72    36    70   1
@<TRIPOS>SUBSTRUCTURE
     1  LSW      1

