@<TRIPOS>MOLECULE
3l3n_ligand_032
    70    72
SMALL
GAST_HUCK
****
This file was generated by PARSER (from files_GN.cpp)

@<TRIPOS>ATOM
      1 C          44.1856    9.1503  109.2043 C.2         1 LSW       0.0847
      2 N          42.2333    9.9144  110.5178 N.4         1 LSW       0.2599
      3 O          43.4562    8.8365  108.1118 O.co2       1 LSW      -0.5643
      4 CA         43.5660    9.2393  110.5508 C.3         1 LSW       0.0340
      5 CB         43.4727    7.8191  111.2050 C.3         1 LSW       0.0122
      6 NAA        42.1709   15.0186  114.6586 N.4         1 LSW       0.2185
      7 OAC        46.9270   13.1829  110.3598 O.co2       1 LSW      -0.5665
      8 OAD        43.0145   11.7140  108.5145 O.2         1 LSW      -0.3908
      9 OAF        45.7432   15.0443  111.0735 O.co2       1 LSW      -0.5665
     10 CAG        40.0673    6.5331  107.3901 C.ar        1 LSW      -0.0687
     11 CAH        41.4450    6.2661  107.4825 C.ar        1 LSW      -0.0686
     12 CAI        39.3579    6.9527  108.5294 C.ar        1 LSW      -0.0686
     13 CAJ        40.0545   17.7658  109.9123 C.ar        1 LSW      -0.0768
     14 CAK        41.3936   18.0109  110.2908 C.ar        1 LSW      -0.0792
     15 CAL        42.1118    6.4142  108.7141 C.ar        1 LSW      -0.0603
     16 CAM        40.0358    7.1433  109.7469 C.ar        1 LSW      -0.0603
     17 CAN        39.7507   16.7209  109.0160 C.ar        1 LSW      -0.0443
     18 CAO        42.4372   17.1961  109.8013 C.ar        1 LSW      -0.0747
     19 CAP        42.0325   14.4880  107.4334 C.2         1 LSW       0.0166
     20 CAQ        40.8246   14.6847  114.1875 C.3         1 LSW      -0.0354
     21 CAR        40.8010   14.2793  112.6904 C.3         1 LSW      -0.0123
     22 CAS        40.6393   12.7597  112.3929 C.3         1 LSW      -0.0410
     23 CAT        42.1197    7.0417  111.1680 C.3         1 LSW      -0.0125
     24 CAU        41.9369   11.9346  112.0692 C.3         1 LSW       0.0081
     25 CAW        44.3635   14.9711  108.3945 C.3         1 LSW      -0.0013
     26 NAX        43.7867   13.0902  110.0502 N.am        1 LSW      -0.2657
     27 CBB        45.8951   14.0380  110.1803 C.2         1 LSW       0.0613
     28 CBC        42.9715   12.1167  109.6733 C.2         1 LSW       0.2263
     29 CBD        41.4260    6.8828  109.8580 C.ar        1 LSW      -0.0427
     30 CBE        42.9059   15.1977  108.2603 C.2         1 LSW      -0.0424
     31 CBF        40.8024   15.9319  108.5161 C.ar        1 LSW       0.0603
     32 CBG        42.1237   16.1492  108.9141 C.ar        1 LSW      -0.0214
     33 CBI        42.0729   11.4033  110.5817 C.3         1 LSW       0.0683
     34 CBJ        44.8003   13.7182  109.2398 C.3         1 LSW       0.0987
     35 OXT        45.5138    9.3397  109.0306 O.co2       1 LSW      -0.5643
     36 NXZ        40.7771   14.9251  107.6299 N.pl3       1 LSW      -0.2891
     37 H1         41.6877    9.5307  111.2916 H           1 LSW       0.2052
     38 H2         41.7718    9.6034  109.6585 H           1 LSW       0.2052
     39 H3         44.2352    9.8400  111.1780 H           1 LSW       0.1027
     40 H4         43.7066    7.9419  112.2671 H           1 LSW       0.0361
     41 H5         44.2588    7.1695  110.8068 H           1 LSW       0.0361
     42 H6         42.1538   15.1195  115.6784 H           1 LSW       0.1994
     43 H7         42.4584   15.9037  114.2403 H           1 LSW       0.1994
     44 H8         42.8354   14.2892  114.3917 H           1 LSW       0.1994
     45 H9         39.5798    6.4194  106.4983 H           1 LSW       0.0559
     46 H10        41.9635    5.9648  106.6526 H           1 LSW       0.0599
     47 H11        38.3496    7.1197  108.4729 H           1 LSW       0.0599
     48 H12        39.3049   18.3486  110.2814 H           1 LSW       0.0530
     49 H13        41.6053   18.7786  110.9366 H           1 LSW       0.0510
     50 H14        43.1137    6.2153  108.7581 H           1 LSW       0.0557
     51 H15        39.5005    7.4612  110.5572 H           1 LSW       0.0557
     52 H16        38.7837   16.5359  108.7340 H           1 LSW       0.0541
     53 H17        43.4035   17.3788  110.0816 H           1 LSW       0.0540
     54 H18        42.2934   13.7428  106.7843 H           1 LSW       0.0795
     55 H19        40.2033   15.5724  114.3315 H           1 LSW       0.0813
     56 H20        40.4121   13.8968  114.8168 H           1 LSW       0.0813
     57 H21        41.6839   14.6697  112.1772 H           1 LSW       0.0317
     58 H22        39.9371   14.7808  112.2470 H           1 LSW       0.0317
     59 H23        39.9431   12.6988  111.5563 H           1 LSW       0.0270
     60 H24        40.1194   12.2885  113.2312 H           1 LSW       0.0270
     61 H25        41.4471    7.5231  111.8842 H           1 LSW       0.0429
     62 H26        42.3064    6.0390  111.5632 H           1 LSW       0.0429
     63 H27        41.9315   11.0693  112.7396 H           1 LSW       0.0346
     64 H28        42.8135   12.5032  112.3784 H           1 LSW       0.0346
     65 H29        44.8018   15.8923  108.7932 H           1 LSW       0.0390
     66 H30        44.7802   14.8664  107.3894 H           1 LSW       0.0390
     67 H31        43.7900   13.3249  110.9931 H           1 LSW       0.1878
     68 H32        41.0923   11.5399  110.1228 H           1 LSW       0.1099
     69 H33        45.1878   12.9657  108.5468 H           1 LSW       0.0741
     70 H34        39.9854   14.5901  107.1804 H           1 LSW       0.2216
@<TRIPOS>BOND
     1     1     3  ar
     2     4     1   1
     3     1    35  ar
     4     2     4   1
     5    33     2   1
     6     4     5   1
     7     5    23   1
     8    20     6   1
     9    27     7  ar
    10    28     8   2
    11    27     9  ar
    12    11    10  ar
    13    12    10  ar
    14    15    11  ar
    15    16    12  ar
    16    14    13  ar
    17    13    17  ar
    18    18    14  ar
    19    29    15  ar
    20    29    16  ar
    21    17    31  ar
    22    32    18  ar
    23    30    19   2
    24    19    36   1
    25    21    20   1
    26    22    21   1
    27    24    22   1
    28    23    29   1
    29    33    24   1
    30    30    25   1
    31    25    34   1
    32    26    28  am
    33    34    26   1
    34    34    27   1
    35    28    33   1
    36    30    32   1
    37    31    32  ar
    38    31    36   1
    39     2    37   1
    40     2    38   1
    41     4    39   1
    42     5    40   1
    43     5    41   1
    44     6    42   1
    45     6    43   1
    46     6    44   1
    47    10    45   1
    48    11    46   1
    49    12    47   1
    50    13    48   1
    51    14    49   1
    52    15    50   1
    53    16    51   1
    54    17    52   1
    55    18    53   1
    56    19    54   1
    57    20    55   1
    58    20    56   1
    59    21    57   1
    60    21    58   1
    61    22    59   1
    62    22    60   1
    63    23    61   1
    64    23    62   1
    65    24    63   1
    66    24    64   1
    67    25    65   1
    68    25    66   1
    69    26    67   1
    70    33    68   1
    71    34    69   1
    72    36    70   1
@<TRIPOS>SUBSTRUCTURE
     1  LSW      1

