@<TRIPOS>MOLECULE
3l3n_ligand_063
    70    72
SMALL
GAST_HUCK
****
This file was generated by PARSER (from files_GN.cpp)

@<TRIPOS>ATOM
      1 C          44.3029   13.7187  108.4922 C.2         1 LSW       0.0847
      2 N          42.2221   15.0136  108.5718 N.4         1 LSW       0.2599
      3 O          45.4635   13.3944  109.1096 O.co2       1 LSW      -0.5643
      4 CA         43.1035   14.0490  109.2972 C.3         1 LSW       0.0340
      5 CB         42.3479   12.7525  109.7428 C.3         1 LSW       0.0122
      6 NAA        42.4499   20.0948  104.4372 N.4         1 LSW       0.2185
      7 OAC        40.0807   20.9700  111.7408 O.co2       1 LSW      -0.5665
      8 OAD        40.4436   17.1284  108.2334 O.2         1 LSW      -0.3908
      9 OAF        42.1994   20.0321  111.7703 O.co2       1 LSW      -0.5665
     10 CAG        44.3293    8.0326  111.0544 C.ar        1 LSW      -0.0687
     11 CAH        44.8324    8.9622  110.1238 C.ar        1 LSW      -0.0686
     12 CAI        43.3167    8.4199  111.9507 C.ar        1 LSW      -0.0686
     13 CAJ        40.6008   15.3038  115.1906 C.ar        1 LSW      -0.0768
     14 CAK        40.3899   16.7016  115.1472 C.ar        1 LSW      -0.0792
     15 CAL        44.3342   10.2792  110.0985 C.ar        1 LSW      -0.0603
     16 CAM        42.8153    9.7370  111.9242 C.ar        1 LSW      -0.0603
     17 CAN        40.4812   14.5295  114.0145 C.ar        1 LSW      -0.0443
     18 CAO        40.0325   17.3332  113.9381 C.ar        1 LSW      -0.0747
     19 CAP        39.6117   15.6581  110.7492 C.2         1 LSW       0.0166
     20 CAQ        43.6229   19.4034  104.9799 C.3         1 LSW      -0.0354
     21 CAR        43.4570   17.8649  104.8949 C.3         1 LSW      -0.0123
     22 CAS        42.5886   17.2452  106.0310 C.3         1 LSW      -0.0410
     23 CAT        42.9141   12.1216  111.0651 C.3         1 LSW      -0.0125
     24 CAU        43.4227   16.8821  107.2985 C.3         1 LSW       0.0081
     25 CAW        39.2259   18.1869  110.8614 C.3         1 LSW      -0.0013
     26 NAX        41.5182   18.1739  109.8713 N.am        1 LSW      -0.2657
     27 CBB        40.9190   19.9907  111.3368 C.2         1 LSW       0.0613
     28 CBC        41.4768   17.3028  108.8653 C.2         1 LSW       0.2263
     29 CBD        43.3222   10.6881  111.0009 C.ar        1 LSW      -0.0427
     30 CBE        39.5848   16.8719  111.4502 C.2         1 LSW      -0.0424
     31 CBF        40.1295   15.1730  112.8168 C.ar        1 LSW       0.0603
     32 CBG        39.9100   16.5549  112.7701 C.ar        1 LSW      -0.0214
     33 CBI        42.6371   16.4581  108.5782 C.3         1 LSW       0.0683
     34 CBJ        40.4432   19.0144  110.3294 C.3         1 LSW       0.0987
     35 OXT        44.2877   13.8548  107.1427 O.co2       1 LSW      -0.5643
     36 NXZ        39.9457   14.6631  111.5892 N.pl3       1 LSW      -0.2891
     37 H1         41.3001   14.9651  109.0239 H           1 LSW       0.2052
     38 H2         42.1075   14.7063  107.6036 H           1 LSW       0.2052
     39 H3         43.4265   14.5515  110.2147 H           1 LSW       0.1027
     40 H4         42.3423   12.0246  108.9265 H           1 LSW       0.0361
     41 H5         41.2980   13.0077  109.9209 H           1 LSW       0.0361
     42 H6         42.5554   21.0983  104.5974 H           1 LSW       0.1994
     43 H7         41.5964   19.7684  104.8973 H           1 LSW       0.1994
     44 H8         42.3937   19.9134  103.4328 H           1 LSW       0.1994
     45 H9         44.7076    7.0817  111.0854 H           1 LSW       0.0559
     46 H10        45.5672    8.6794  109.4722 H           1 LSW       0.0599
     47 H11        42.9554    7.7480  112.6318 H           1 LSW       0.0599
     48 H12        40.8636   14.8489  116.0682 H           1 LSW       0.0530
     49 H13        40.4903   17.2513  116.0021 H           1 LSW       0.0510
     50 H14        44.7388   10.9488  109.4346 H           1 LSW       0.0557
     51 H15        42.0922   10.0029  112.5989 H           1 LSW       0.0557
     52 H16        40.6263   13.5185  114.0319 H           1 LSW       0.0541
     53 H17        39.8530   18.3389  113.9185 H           1 LSW       0.0540
     54 H18        39.4069   15.5444  109.7525 H           1 LSW       0.0795
     55 H19        43.7744   19.7282  106.0093 H           1 LSW       0.0813
     56 H20        44.4951   19.7081  104.3967 H           1 LSW       0.0813
     57 H21        44.4546   17.4144  104.9216 H           1 LSW       0.0317
     58 H22        43.0093   17.6195  103.9251 H           1 LSW       0.0317
     59 H23        42.1044   16.3369  105.6598 H           1 LSW       0.0270
     60 H24        41.7932   17.9527  106.2793 H           1 LSW       0.0270
     61 H25        42.1702   12.2664  111.8575 H           1 LSW       0.0429
     62 H26        43.8058   12.6656  111.3945 H           1 LSW       0.0429
     63 H27        44.0312   17.7580  107.5675 H           1 LSW       0.0346
     64 H28        44.0990   16.0534  107.0304 H           1 LSW       0.0346
     65 H29        38.6485   18.7612  111.5962 H           1 LSW       0.0390
     66 H30        38.5480   18.0050  110.0225 H           1 LSW       0.0390
     67 H31        42.3637   18.2476  110.3463 H           1 LSW       0.1878
     68 H32        43.3580   16.6091  109.3966 H           1 LSW       0.1099
     69 H33        40.1027   19.6090  109.4718 H           1 LSW       0.0741
     70 H34        40.0166   13.7263  111.3510 H           1 LSW       0.2216
@<TRIPOS>BOND
     1     1     3  ar
     2     4     1   1
     3     1    35  ar
     4     2     4   1
     5    33     2   1
     6     4     5   1
     7     5    23   1
     8    20     6   1
     9    27     7  ar
    10    28     8   2
    11    27     9  ar
    12    11    10  ar
    13    12    10  ar
    14    15    11  ar
    15    16    12  ar
    16    14    13  ar
    17    13    17  ar
    18    18    14  ar
    19    29    15  ar
    20    29    16  ar
    21    17    31  ar
    22    32    18  ar
    23    30    19   2
    24    19    36   1
    25    21    20   1
    26    22    21   1
    27    24    22   1
    28    23    29   1
    29    33    24   1
    30    30    25   1
    31    25    34   1
    32    26    28  am
    33    34    26   1
    34    34    27   1
    35    28    33   1
    36    30    32   1
    37    31    32  ar
    38    31    36   1
    39     2    37   1
    40     2    38   1
    41     4    39   1
    42     5    40   1
    43     5    41   1
    44     6    42   1
    45     6    43   1
    46     6    44   1
    47    10    45   1
    48    11    46   1
    49    12    47   1
    50    13    48   1
    51    14    49   1
    52    15    50   1
    53    16    51   1
    54    17    52   1
    55    18    53   1
    56    19    54   1
    57    20    55   1
    58    20    56   1
    59    21    57   1
    60    21    58   1
    61    22    59   1
    62    22    60   1
    63    23    61   1
    64    23    62   1
    65    24    63   1
    66    24    64   1
    67    25    65   1
    68    25    66   1
    69    26    67   1
    70    33    68   1
    71    34    69   1
    72    36    70   1
@<TRIPOS>SUBSTRUCTURE
     1  LSW      1

