@<TRIPOS>MOLECULE
3l3n_ligand_086
    70    72
SMALL
GAST_HUCK
****
This file was generated by PARSER (from files_GN.cpp)

@<TRIPOS>ATOM
      1 C          41.2223   17.5072  110.6054 C.2         1 LSW       0.0847
      2 N          41.2791   15.6045  112.0955 N.4         1 LSW       0.2599
      3 O          40.1125   18.1883  110.9849 O.co2       1 LSW      -0.5643
      4 CA         41.2617   16.0286  110.6644 C.3         1 LSW       0.0340
      5 CB         40.0682   15.3942  109.8525 C.3         1 LSW       0.0122
      6 NAA        40.6076    8.4517  112.5313 N.4         1 LSW       0.2185
      7 OAC        47.5460   14.1724  112.6191 O.co2       1 LSW      -0.5665
      8 OAD        43.4017   14.0000  114.2818 O.2         1 LSW      -0.3908
      9 OAF        45.7312   13.8061  111.2240 O.co2       1 LSW      -0.5665
     10 CAG        44.2101   13.3140  107.6602 C.ar        1 LSW      -0.0687
     11 CAH        43.0730   12.5036  107.8476 C.ar        1 LSW      -0.0686
     12 CAI        44.0693   14.7132  107.6312 C.ar        1 LSW      -0.0686
     13 CAJ        47.2681   20.4715  116.6367 C.ar        1 LSW      -0.0768
     14 CAK        45.9653   19.9317  116.6118 C.ar        1 LSW      -0.0792
     15 CAL        41.8014   13.0974  108.0206 C.ar        1 LSW      -0.0603
     16 CAM        42.8012   15.3036  107.7909 C.ar        1 LSW      -0.0603
     17 CAN        48.3441   19.7709  116.0512 C.ar        1 LSW      -0.0443
     18 CAO        45.7246   18.6732  116.0162 C.ar        1 LSW      -0.0747
     19 CAP        48.2239   16.6195  114.4096 C.2         1 LSW       0.0166
     20 CAQ        41.7371    9.3340  112.2594 C.3         1 LSW      -0.0354
     21 CAR        41.2983   10.8245  112.1860 C.3         1 LSW      -0.0123
     22 CAS        42.5077   11.7862  111.9994 C.3         1 LSW      -0.0410
     23 CAT        40.3405   15.1675  108.3349 C.3         1 LSW      -0.0125
     24 CAU        42.1139   13.1980  111.4661 C.3         1 LSW       0.0081
     25 CAW        45.7840   15.7814  114.4638 C.3         1 LSW      -0.0013
     26 NAX        44.0956   15.3151  112.6101 N.am        1 LSW      -0.2657
     27 CBB        46.2626   14.4722  112.2844 C.2         1 LSW       0.0613
     28 CBC        43.1726   14.5702  113.2173 C.2         1 LSW       0.2263
     29 CBD        41.6500   14.5083  108.0198 C.ar        1 LSW      -0.0427
     30 CBE        46.8756   16.7549  114.7456 C.2         1 LSW      -0.0424
     31 CBF        48.0854   18.5283  115.4487 C.ar        1 LSW       0.0603
     32 CBG        46.7963   17.9710  115.4250 C.ar        1 LSW      -0.0214
     33 CBI        41.8997   14.3108  112.5407 C.3         1 LSW       0.0683
     34 CBJ        45.4775   15.5380  112.9379 C.3         1 LSW       0.0987
     35 OXT        42.3154   18.2231  110.2346 O.co2       1 LSW      -0.5643
     36 NXZ        48.9177   17.6968  114.8160 N.pl3       1 LSW      -0.2891
     37 H1         40.3133   15.6238  112.4334 H           1 LSW       0.2052
     38 H2         41.7927   16.3309  112.5896 H           1 LSW       0.2052
     39 H3         42.2169   15.7209  110.2219 H           1 LSW       0.1027
     40 H4         39.1847   16.0535  109.9276 H           1 LSW       0.0361
     41 H5         39.7804   14.4335  110.3079 H           1 LSW       0.0361
     42 H6         40.9195    7.4790  112.4268 H           1 LSW       0.1994
     43 H7         39.8477    8.6362  111.8632 H           1 LSW       0.1994
     44 H8         40.2715    8.6037  113.4862 H           1 LSW       0.1994
     45 H9         45.1354   12.8913  107.5561 H           1 LSW       0.0559
     46 H10        43.1747   11.4856  107.8793 H           1 LSW       0.0599
     47 H11        44.8939   15.3092  107.5025 H           1 LSW       0.0599
     48 H12        47.4349   21.3816  117.0769 H           1 LSW       0.0530
     49 H13        45.1857   20.4591  117.0124 H           1 LSW       0.0510
     50 H14        40.9944   12.4901  108.1816 H           1 LSW       0.0557
     51 H15        42.7339   16.3207  107.7725 H           1 LSW       0.0557
     52 H16        49.2893   20.1620  116.0540 H           1 LSW       0.0541
     53 H17        44.7808   18.2886  115.9965 H           1 LSW       0.0540
     54 H18        48.6389   15.8414  113.8954 H           1 LSW       0.0795
     55 H19        42.1677    9.0332  111.2958 H           1 LSW       0.0813
     56 H20        42.4941    9.1988  113.0410 H           1 LSW       0.0813
     57 H21        40.7481   11.0873  113.0948 H           1 LSW       0.0317
     58 H22        40.6123   10.9149  111.3390 H           1 LSW       0.0317
     59 H23        43.1987   11.3410  111.2717 H           1 LSW       0.0270
     60 H24        43.0480   11.8531  112.9549 H           1 LSW       0.0270
     61 H25        40.2833   16.1317  107.8146 H           1 LSW       0.0429
     62 H26        39.5410   14.5412  107.9174 H           1 LSW       0.0429
     63 H27        41.1901   13.0923  110.8988 H           1 LSW       0.0346
     64 H28        42.8958   13.5139  110.7672 H           1 LSW       0.0346
     65 H29        44.8813   16.1438  114.9472 H           1 LSW       0.0390
     66 H30        46.0404   14.8376  114.9438 H           1 LSW       0.0390
     67 H31        43.8099   15.7317  111.7793 H           1 LSW       0.1878
     68 H32        41.1938   13.9077  113.2727 H           1 LSW       0.1099
     69 H33        45.7507   16.4618  112.4114 H           1 LSW       0.0741
     70 H34        49.8676   17.8507  114.6726 H           1 LSW       0.2216
@<TRIPOS>BOND
     1     1     3  ar
     2     4     1   1
     3     1    35  ar
     4     2     4   1
     5    33     2   1
     6     4     5   1
     7     5    23   1
     8    20     6   1
     9    27     7  ar
    10    28     8   2
    11    27     9  ar
    12    11    10  ar
    13    12    10  ar
    14    15    11  ar
    15    16    12  ar
    16    14    13  ar
    17    13    17  ar
    18    18    14  ar
    19    29    15  ar
    20    29    16  ar
    21    17    31  ar
    22    32    18  ar
    23    30    19   2
    24    19    36   1
    25    21    20   1
    26    22    21   1
    27    24    22   1
    28    23    29   1
    29    33    24   1
    30    30    25   1
    31    25    34   1
    32    26    28  am
    33    34    26   1
    34    34    27   1
    35    28    33   1
    36    30    32   1
    37    31    32  ar
    38    31    36   1
    39     2    37   1
    40     2    38   1
    41     4    39   1
    42     5    40   1
    43     5    41   1
    44     6    42   1
    45     6    43   1
    46     6    44   1
    47    10    45   1
    48    11    46   1
    49    12    47   1
    50    13    48   1
    51    14    49   1
    52    15    50   1
    53    16    51   1
    54    17    52   1
    55    18    53   1
    56    19    54   1
    57    20    55   1
    58    20    56   1
    59    21    57   1
    60    21    58   1
    61    22    59   1
    62    22    60   1
    63    23    61   1
    64    23    62   1
    65    24    63   1
    66    24    64   1
    67    25    65   1
    68    25    66   1
    69    26    67   1
    70    33    68   1
    71    34    69   1
    72    36    70   1
@<TRIPOS>SUBSTRUCTURE
     1  LSW      1

