@<TRIPOS>MOLECULE
3l3n_ligand_092
    70    72
SMALL
GAST_HUCK
****
This file was generated by PARSER (from files_GN.cpp)

@<TRIPOS>ATOM
      1 C          42.2422   13.0524  107.2627 C.2         1 LSW       0.0847
      2 N          42.6515   13.7587  109.5188 N.4         1 LSW       0.2599
      3 O          41.7354   11.8425  106.9168 O.co2       1 LSW      -0.5643
      4 CA         41.6640   13.8143  108.3999 C.3         1 LSW       0.0340
      5 CB         41.1954   15.2399  107.9563 C.3         1 LSW       0.0122
      6 NAA        38.7823   16.5759  114.9602 N.4         1 LSW       0.2185
      7 OAC        46.6211   13.5747  110.8737 O.co2       1 LSW      -0.5665
      8 OAD        43.6363   13.1896  112.3516 O.2         1 LSW      -0.3908
      9 OAF        47.8968   14.3004  112.6464 O.co2       1 LSW      -0.5665
     10 CAG        41.0957   20.2061  106.5272 C.ar        1 LSW      -0.0687
     11 CAH        41.1426   19.6294  107.8120 C.ar        1 LSW      -0.0686
     12 CAI        41.4073   19.4297  105.4028 C.ar        1 LSW      -0.0686
     13 CAJ        47.7175   18.4150  117.5006 C.ar        1 LSW      -0.0768
     14 CAK        46.5249   18.6889  116.7971 C.ar        1 LSW      -0.0792
     15 CAL        41.4828   18.2746  107.9620 C.ar        1 LSW      -0.0603
     16 CAM        41.7319   18.0659  105.5501 C.ar        1 LSW      -0.0603
     17 CAN        48.3891   17.1918  117.3166 C.ar        1 LSW      -0.0443
     18 CAO        45.9930   17.7362  115.9014 C.ar        1 LSW      -0.0747
     19 CAP        47.4657   14.5141  115.1567 C.2         1 LSW       0.0166
     20 CAQ        39.3245   15.3548  114.3367 C.3         1 LSW      -0.0354
     21 CAR        40.1390   15.6771  113.0459 C.3         1 LSW      -0.0123
     22 CAS        39.8934   14.6805  111.8630 C.3         1 LSW      -0.0410
     23 CAT        42.1488   16.0339  107.0088 C.3         1 LSW      -0.0125
     24 CAU        41.0754   13.7034  111.5610 C.3         1 LSW       0.0081
     25 CAW        45.2993   15.1966  113.9798 C.3         1 LSW      -0.0013
     26 NAX        44.4526   15.1695  111.6568 N.am        1 LSW      -0.2657
     27 CBB        46.6955   14.2760  112.0308 C.2         1 LSW       0.0613
     28 CBC        43.5315   14.2139  111.6742 C.2         1 LSW       0.2263
     29 CBD        41.7785   17.4678  106.8347 C.ar        1 LSW      -0.0427
     30 CBE        46.4372   15.4209  114.8974 C.2         1 LSW      -0.0424
     31 CBF        47.8518   16.2564  116.4153 C.ar        1 LSW       0.0603
     32 CBG        46.6854   16.5285  115.7050 C.ar        1 LSW      -0.0214
     33 CBI        42.3288   14.3541  110.8529 C.3         1 LSW       0.0683
     34 CBJ        45.6461   15.2411  112.4569 C.3         1 LSW       0.0987
     35 OXT        43.3336   13.5100  106.5965 O.co2       1 LSW      -0.5643
     36 NXZ        48.2854   15.0321  116.0813 N.pl3       1 LSW      -0.2891
     37 H1         43.5070   14.2260  109.1903 H           1 LSW       0.2052
     38 H2         42.8747   12.7604  109.6591 H           1 LSW       0.2052
     39 H3         40.7685   13.2794  108.7338 H           1 LSW       0.1027
     40 H4         41.0397   15.8407  108.8617 H           1 LSW       0.0361
     41 H5         40.2194   15.1551  107.4757 H           1 LSW       0.0361
     42 H6         38.1801   16.3163  115.7559 H           1 LSW       0.1994
     43 H7         38.2221   17.0841  114.2650 H           1 LSW       0.1994
     44 H8         39.5507   17.1672  115.2914 H           1 LSW       0.1994
     45 H9         40.8644   21.1956  106.4123 H           1 LSW       0.0559
     46 H10        40.9251   20.2024  108.6293 H           1 LSW       0.0599
     47 H11        41.3899   19.8477  104.4705 H           1 LSW       0.0599
     48 H12        48.0951   19.1127  118.1444 H           1 LSW       0.0530
     49 H13        46.0371   19.5777  116.9360 H           1 LSW       0.0510
     50 H14        41.5348   17.8878  108.9096 H           1 LSW       0.0557
     51 H15        41.9601   17.5136  104.7202 H           1 LSW       0.0557
     52 H16        49.2585   16.9976  117.8065 H           1 LSW       0.0541
     53 H17        45.1385   17.9330  115.3906 H           1 LSW       0.0540
     54 H18        47.5754   13.5989  114.7257 H           1 LSW       0.0795
     55 H19        38.4683   14.7090  114.1123 H           1 LSW       0.0813
     56 H20        39.9615   14.8414  115.0667 H           1 LSW       0.0813
     57 H21        41.2072   15.7108  113.2986 H           1 LSW       0.0317
     58 H22        39.8673   16.6853  112.6953 H           1 LSW       0.0317
     59 H23        39.6795   15.2672  110.9636 H           1 LSW       0.0270
     60 H24        38.9910   14.0966  112.0718 H           1 LSW       0.0270
     61 H25        42.1307   15.5268  106.0368 H           1 LSW       0.0429
     62 H26        43.1773   15.9880  107.3869 H           1 LSW       0.0429
     63 H27        40.6727   12.8952  110.9308 H           1 LSW       0.0346
     64 H28        41.3437   13.2303  112.5199 H           1 LSW       0.0346
     65 H29        44.5340   15.9520  114.1794 H           1 LSW       0.0390
     66 H30        44.8471   14.2370  114.2177 H           1 LSW       0.0390
     67 H31        44.2678   15.9339  111.0776 H           1 LSW       0.1878
     68 H32        42.1312   15.4275  110.7016 H           1 LSW       0.1099
     69 H33        46.0476   16.2351  112.2521 H           1 LSW       0.0741
     70 H34        49.0736   14.5942  116.4369 H           1 LSW       0.2216
@<TRIPOS>BOND
     1     1     3  ar
     2     4     1   1
     3     1    35  ar
     4     2     4   1
     5    33     2   1
     6     4     5   1
     7     5    23   1
     8    20     6   1
     9    27     7  ar
    10    28     8   2
    11    27     9  ar
    12    11    10  ar
    13    12    10  ar
    14    15    11  ar
    15    16    12  ar
    16    14    13  ar
    17    13    17  ar
    18    18    14  ar
    19    29    15  ar
    20    29    16  ar
    21    17    31  ar
    22    32    18  ar
    23    30    19   2
    24    19    36   1
    25    21    20   1
    26    22    21   1
    27    24    22   1
    28    23    29   1
    29    33    24   1
    30    30    25   1
    31    25    34   1
    32    26    28  am
    33    34    26   1
    34    34    27   1
    35    28    33   1
    36    30    32   1
    37    31    32  ar
    38    31    36   1
    39     2    37   1
    40     2    38   1
    41     4    39   1
    42     5    40   1
    43     5    41   1
    44     6    42   1
    45     6    43   1
    46     6    44   1
    47    10    45   1
    48    11    46   1
    49    12    47   1
    50    13    48   1
    51    14    49   1
    52    15    50   1
    53    16    51   1
    54    17    52   1
    55    18    53   1
    56    19    54   1
    57    20    55   1
    58    20    56   1
    59    21    57   1
    60    21    58   1
    61    22    59   1
    62    22    60   1
    63    23    61   1
    64    23    62   1
    65    24    63   1
    66    24    64   1
    67    25    65   1
    68    25    66   1
    69    26    67   1
    70    33    68   1
    71    34    69   1
    72    36    70   1
@<TRIPOS>SUBSTRUCTURE
     1  LSW      1

