@<TRIPOS>MOLECULE
3l3n_ligand_058
    70    72
SMALL
GAST_HUCK
****
This file was generated by PARSER (from files_GN.cpp)

@<TRIPOS>ATOM
      1 C          44.0744   14.6845  113.6259 C.2         1 LSW       0.0847
      2 N          44.5602   15.1976  111.2616 N.4         1 LSW       0.2599
      3 O          43.2637   13.6003  113.6724 O.co2       1 LSW      -0.5643
      4 CA         45.1300   14.7841  112.5775 C.3         1 LSW       0.0340
      5 CB         46.2552   15.8217  112.9004 C.3         1 LSW       0.0122
      6 NAA        43.9214   18.3625  105.4834 N.4         1 LSW       0.2185
      7 OAC        46.2570   10.6876  110.6206 O.co2       1 LSW      -0.5665
      8 OAD        45.2641   12.9430  109.7083 O.2         1 LSW      -0.3908
      9 OAF        45.3232    9.6590  108.8014 O.co2       1 LSW      -0.5665
     10 CAG        47.5484   19.5759  116.0268 C.ar        1 LSW      -0.0687
     11 CAH        46.3007   18.9406  116.1176 C.ar        1 LSW      -0.0686
     12 CAI        48.6300   18.9229  115.4083 C.ar        1 LSW      -0.0686
     13 CAJ        39.7069   12.6343  106.6639 C.ar        1 LSW      -0.0768
     14 CAK        39.7228   12.7217  108.0748 C.ar        1 LSW      -0.0792
     15 CAL        46.1340   17.6471  115.5863 C.ar        1 LSW      -0.0603
     16 CAM        48.4592   17.6335  114.8688 C.ar        1 LSW      -0.0603
     17 CAN        40.4998   11.6759  106.0023 C.ar        1 LSW      -0.0443
     18 CAO        40.5431   11.8623  108.8341 C.ar        1 LSW      -0.0747
     19 CAP        42.6693    9.2659  107.4637 C.2         1 LSW       0.0166
     20 CAQ        44.5841   17.4247  106.4057 C.3         1 LSW      -0.0354
     21 CAR        43.5362   16.5915  107.1800 C.3         1 LSW      -0.0123
     22 CAS        44.1608   15.6580  108.2578 C.3         1 LSW      -0.0410
     23 CAT        46.9809   15.6590  114.2745 C.3         1 LSW      -0.0125
     24 CAU        43.0948   15.1143  109.2507 C.3         1 LSW       0.0081
     25 CAW        42.6564    9.6431  109.9991 C.3         1 LSW      -0.0013
     26 NAX        43.4643   11.9258  110.5622 N.am        1 LSW      -0.2657
     27 CBB        45.1565   10.1525  110.0486 C.2         1 LSW       0.0613
     28 CBC        44.1540   13.0110  110.2136 C.2         1 LSW       0.2263
     29 CBD        47.2037   16.9823  114.9394 C.ar        1 LSW      -0.0427
     30 CBE        42.2418    9.9445  108.6079 C.2         1 LSW      -0.0424
     31 CBF        41.2976   10.8147  106.7684 C.ar        1 LSW       0.0603
     32 CBG        41.3416   10.9116  108.1653 C.ar        1 LSW      -0.0214
     33 CBI        43.6057   14.3357  110.5099 C.3         1 LSW       0.0683
     34 CBJ        43.8117   10.5245  110.5673 C.3         1 LSW       0.0987
     35 OXT        44.0563   15.4835  114.7202 O.co2       1 LSW      -0.5643
     36 NXZ        42.1094    9.8246  106.3804 N.pl3       1 LSW      -0.2891
     37 H1         45.3540   15.3742  110.6395 H           1 LSW       0.2052
     38 H2         44.0811   16.0837  111.4224 H           1 LSW       0.2052
     39 H3         45.6012   13.8024  112.4494 H           1 LSW       0.1027
     40 H4         45.8183   16.8233  112.8169 H           1 LSW       0.0361
     41 H5         47.0156   15.7585  112.1133 H           1 LSW       0.0361
     42 H6         44.6127   18.9770  105.0435 H           1 LSW       0.1994
     43 H7         43.2564   18.9376  106.0069 H           1 LSW       0.1994
     44 H8         43.4225   17.8421  104.7588 H           1 LSW       0.1994
     45 H9         47.6687   20.5269  116.3931 H           1 LSW       0.0559
     46 H10        45.5080   19.4270  116.5503 H           1 LSW       0.0599
     47 H11        49.5341   19.3978  115.3217 H           1 LSW       0.0599
     48 H12        39.1191   13.2691  106.1208 H           1 LSW       0.0530
     49 H13        39.1389   13.4182  108.5449 H           1 LSW       0.0510
     50 H14        45.2134   17.2073  115.6525 H           1 LSW       0.0557
     51 H15        49.2427   17.1901  114.3862 H           1 LSW       0.0557
     52 H16        40.4839   11.5961  104.9833 H           1 LSW       0.0541
     53 H17        40.5436   11.9210  109.8542 H           1 LSW       0.0540
     54 H18        43.3313    8.4892  107.4458 H           1 LSW       0.0795
     55 H19        45.1912   18.0106  107.0986 H           1 LSW       0.0813
     56 H20        45.2468   16.7718  105.8363 H           1 LSW       0.0813
     57 H21        42.9697   15.9828  106.4721 H           1 LSW       0.0317
     58 H22        42.8437   17.2851  107.6645 H           1 LSW       0.0317
     59 H23        44.9109   16.2268  108.8092 H           1 LSW       0.0270
     60 H24        44.6587   14.8232  107.7594 H           1 LSW       0.0270
     61 H25        47.9299   15.1351  114.1003 H           1 LSW       0.0429
     62 H26        46.4082   15.0274  114.9489 H           1 LSW       0.0429
     63 H27        42.3991   14.4766  108.7026 H           1 LSW       0.0346
     64 H28        42.5170   15.9685  109.6223 H           1 LSW       0.0346
     65 H29        42.9758    8.5960  110.0472 H           1 LSW       0.0390
     66 H30        41.7797    9.7304  110.6451 H           1 LSW       0.0390
     67 H31        42.5797   12.1053  110.9267 H           1 LSW       0.1878
     68 H32        42.7235   14.2207  111.1489 H           1 LSW       0.1099
     69 H33        43.8491   10.2742  111.6330 H           1 LSW       0.0741
     70 H34        42.2575    9.5371  105.4660 H           1 LSW       0.2216
@<TRIPOS>BOND
     1     1     3  ar
     2     4     1   1
     3     1    35  ar
     4     2     4   1
     5    33     2   1
     6     4     5   1
     7     5    23   1
     8    20     6   1
     9    27     7  ar
    10    28     8   2
    11    27     9  ar
    12    11    10  ar
    13    12    10  ar
    14    15    11  ar
    15    16    12  ar
    16    14    13  ar
    17    13    17  ar
    18    18    14  ar
    19    29    15  ar
    20    29    16  ar
    21    17    31  ar
    22    32    18  ar
    23    30    19   2
    24    19    36   1
    25    21    20   1
    26    22    21   1
    27    24    22   1
    28    23    29   1
    29    33    24   1
    30    30    25   1
    31    25    34   1
    32    26    28  am
    33    34    26   1
    34    34    27   1
    35    28    33   1
    36    30    32   1
    37    31    32  ar
    38    31    36   1
    39     2    37   1
    40     2    38   1
    41     4    39   1
    42     5    40   1
    43     5    41   1
    44     6    42   1
    45     6    43   1
    46     6    44   1
    47    10    45   1
    48    11    46   1
    49    12    47   1
    50    13    48   1
    51    14    49   1
    52    15    50   1
    53    16    51   1
    54    17    52   1
    55    18    53   1
    56    19    54   1
    57    20    55   1
    58    20    56   1
    59    21    57   1
    60    21    58   1
    61    22    59   1
    62    22    60   1
    63    23    61   1
    64    23    62   1
    65    24    63   1
    66    24    64   1
    67    25    65   1
    68    25    66   1
    69    26    67   1
    70    33    68   1
    71    34    69   1
    72    36    70   1
@<TRIPOS>SUBSTRUCTURE
     1  LSW      1

