@<TRIPOS>MOLECULE
3l3n_ligand_077
    70    72
SMALL
GAST_HUCK
****
This file was generated by PARSER (from files_GN.cpp)

@<TRIPOS>ATOM
      1 C          46.7901   13.9769  111.1326 C.2         1 LSW       0.0847
      2 N          44.4776   14.5942  111.3843 N.4         1 LSW       0.2599
      3 O          47.8464   13.7311  111.9480 O.co2       1 LSW      -0.5643
      4 CA         45.8683   15.1280  111.3239 C.3         1 LSW       0.0340
      5 CB         46.2162   15.9994  112.5806 C.3         1 LSW       0.0122
      6 NAA        41.6759   17.6879  105.6205 N.4         1 LSW       0.2185
      7 OAC        40.4309   11.9128  110.5882 O.co2       1 LSW      -0.5665
      8 OAD        41.1236   14.6812  110.2099 O.2         1 LSW      -0.3908
      9 OAF        40.4473   10.7955  112.6234 O.co2       1 LSW      -0.5665
     10 CAG        47.9147   16.7617  117.4079 C.ar        1 LSW      -0.0687
     11 CAH        48.2833   15.5856  116.7304 C.ar        1 LSW      -0.0686
     12 CAI        46.8253   17.5224  116.9482 C.ar        1 LSW      -0.0686
     13 CAJ        40.5737   19.4182  112.4023 C.ar        1 LSW      -0.0768
     14 CAK        40.2440   18.5624  111.3271 C.ar        1 LSW      -0.0792
     15 CAL        47.5671   15.1735  115.5929 C.ar        1 LSW      -0.0603
     16 CAM        46.1039   17.1052  115.8160 C.ar        1 LSW      -0.0603
     17 CAN        40.5741   18.9302  113.7233 C.ar        1 LSW      -0.0443
     18 CAO        39.9343   17.2043  111.5578 C.ar        1 LSW      -0.0747
     19 CAP        40.0062   15.5857  114.8089 C.2         1 LSW       0.0166
     20 CAQ        42.1553   17.6999  107.0130 C.3         1 LSW      -0.0354
     21 CAR        43.2882   16.6748  107.3001 C.3         1 LSW      -0.0123
     22 CAS        42.7948   15.2967  107.8604 C.3         1 LSW      -0.0410
     23 CAT        45.6812   15.4614  113.9443 C.3         1 LSW      -0.0125
     24 CAU        43.7162   14.6624  108.9583 C.3         1 LSW       0.0081
     25 CAW        39.5425   14.1517  112.7443 C.3         1 LSW      -0.0013
     26 NAX        41.9655   13.8706  112.0900 N.am        1 LSW      -0.2657
     27 CBB        40.5293   11.9617  111.9356 C.2         1 LSW       0.0613
     28 CBC        42.1040   14.5007  110.9170 C.2         1 LSW       0.2263
     29 CBD        46.4598   15.9214  115.1257 C.ar        1 LSW      -0.0427
     30 CBE        39.8101   15.4412  113.4316 C.2         1 LSW      -0.0424
     31 CBF        40.2819   17.5739  113.9395 C.ar        1 LSW       0.0603
     32 CBG        39.9804   16.7139  112.8798 C.ar        1 LSW      -0.0214
     33 CBI        43.3960   15.0452  110.4528 C.3         1 LSW       0.0683
     34 CBJ        40.8017   13.2361  112.6447 C.3         1 LSW       0.0987
     35 OXT        46.6401   13.1739  110.0552 O.co2       1 LSW      -0.5643
     36 NXZ        40.2671   16.8735  115.0836 N.pl3       1 LSW      -0.2891
     37 H1         44.1479   14.8350  112.3169 H           1 LSW       0.2052
     38 H2         44.5164   13.5735  111.3294 H           1 LSW       0.2052
     39 H3         45.9854   15.7782  110.4528 H           1 LSW       0.1027
     40 H4         45.8144   17.0034  112.4313 H           1 LSW       0.0361
     41 H5         47.3056   16.0994  112.6322 H           1 LSW       0.0361
     42 H6         41.0117   18.4591  105.5063 H           1 LSW       0.1994
     43 H7         41.1969   16.8083  105.3963 H           1 LSW       0.1994
     44 H8         42.4689   17.8270  104.9873 H           1 LSW       0.1994
     45 H9         48.4337   17.0652  118.2348 H           1 LSW       0.0559
     46 H10        49.0759   15.0302  117.0616 H           1 LSW       0.0599
     47 H11        46.5586   18.3784  117.4416 H           1 LSW       0.0599
     48 H12        40.8164   20.3952  112.2223 H           1 LSW       0.0530
     49 H13        40.2386   18.9316  110.3758 H           1 LSW       0.0510
     50 H14        47.8547   14.3176  115.1119 H           1 LSW       0.0557
     51 H15        45.3077   17.6630  115.5069 H           1 LSW       0.0557
     52 H16        40.8073   19.5420  114.5063 H           1 LSW       0.0541
     53 H17        39.7048   16.5862  110.7767 H           1 LSW       0.0540
     54 H18        39.9723   14.8367  115.5060 H           1 LSW       0.0795
     55 H19        41.3050   17.5286  107.6792 H           1 LSW       0.0813
     56 H20        42.5389   18.7041  107.2113 H           1 LSW       0.0813
     57 H21        43.9754   17.1403  108.0221 H           1 LSW       0.0317
     58 H22        43.8601   16.5005  106.3688 H           1 LSW       0.0317
     59 H23        42.7478   14.5926  107.0156 H           1 LSW       0.0270
     60 H24        41.7809   15.3892  108.2451 H           1 LSW       0.0270
     61 H25        45.6831   14.3695  113.9257 H           1 LSW       0.0429
     62 H26        44.6348   15.7569  114.0714 H           1 LSW       0.0429
     63 H27        44.7472   14.9428  108.7189 H           1 LSW       0.0346
     64 H28        43.6617   13.5688  108.8658 H           1 LSW       0.0346
     65 H29        39.1408   14.3401  111.7482 H           1 LSW       0.0390
     66 H30        38.7628   13.6231  113.3058 H           1 LSW       0.0390
     67 H31        42.7586   13.8042  112.6535 H           1 LSW       0.1878
     68 H32        43.3277   16.1387  110.5314 H           1 LSW       0.1099
     69 H33        41.0831   12.9695  113.6687 H           1 LSW       0.0741
     70 H34        40.4539   17.2378  115.9630 H           1 LSW       0.2216
@<TRIPOS>BOND
     1     1     3  ar
     2     4     1   1
     3     1    35  ar
     4     2     4   1
     5    33     2   1
     6     4     5   1
     7     5    23   1
     8    20     6   1
     9    27     7  ar
    10    28     8   2
    11    27     9  ar
    12    11    10  ar
    13    12    10  ar
    14    15    11  ar
    15    16    12  ar
    16    14    13  ar
    17    13    17  ar
    18    18    14  ar
    19    29    15  ar
    20    29    16  ar
    21    17    31  ar
    22    32    18  ar
    23    30    19   2
    24    19    36   1
    25    21    20   1
    26    22    21   1
    27    24    22   1
    28    23    29   1
    29    33    24   1
    30    30    25   1
    31    25    34   1
    32    26    28  am
    33    34    26   1
    34    34    27   1
    35    28    33   1
    36    30    32   1
    37    31    32  ar
    38    31    36   1
    39     2    37   1
    40     2    38   1
    41     4    39   1
    42     5    40   1
    43     5    41   1
    44     6    42   1
    45     6    43   1
    46     6    44   1
    47    10    45   1
    48    11    46   1
    49    12    47   1
    50    13    48   1
    51    14    49   1
    52    15    50   1
    53    16    51   1
    54    17    52   1
    55    18    53   1
    56    19    54   1
    57    20    55   1
    58    20    56   1
    59    21    57   1
    60    21    58   1
    61    22    59   1
    62    22    60   1
    63    23    61   1
    64    23    62   1
    65    24    63   1
    66    24    64   1
    67    25    65   1
    68    25    66   1
    69    26    67   1
    70    33    68   1
    71    34    69   1
    72    36    70   1
@<TRIPOS>SUBSTRUCTURE
     1  LSW      1

