@<TRIPOS>MOLECULE
3l3n_ligand_096
    70    72
SMALL
GAST_HUCK
****
This file was generated by PARSER (from files_GN.cpp)

@<TRIPOS>ATOM
      1 C          42.8220   14.5351  108.3611 C.2         1 LSW       0.0847
      2 N          41.3196   13.7198  110.0902 N.4         1 LSW       0.2599
      3 O          43.8280   15.0949  109.0639 O.co2       1 LSW      -0.5643
      4 CA         42.1515   13.3355  108.9044 C.3         1 LSW       0.0340
      5 CB         41.2843   12.5868  107.8376 C.3         1 LSW       0.0122
      6 NAA        39.3310   17.5776  113.8312 N.4         1 LSW       0.2185
      7 OAC        42.4353    9.3432  109.1828 O.co2       1 LSW      -0.5665
      8 OAD        40.4120   11.0926  110.6528 O.2         1 LSW      -0.3908
      9 OAF        44.1752    8.2929  110.2953 O.co2       1 LSW      -0.5665
     10 CAG        39.6671    9.2397  104.2824 C.ar        1 LSW      -0.0687
     11 CAH        39.3247   10.6011  104.3696 C.ar        1 LSW      -0.0686
     12 CAI        40.8007    8.7568  104.9593 C.ar        1 LSW      -0.0686
     13 CAJ        39.8513    5.7390  107.5976 C.ar        1 LSW      -0.0768
     14 CAK        41.0138    5.5795  108.3862 C.ar        1 LSW      -0.0792
     15 CAL        40.1184   11.4787  105.1357 C.ar        1 LSW      -0.0603
     16 CAM        41.5856    9.6315  105.7317 C.ar        1 LSW      -0.0603
     17 CAN        38.8533    6.6598  107.9752 C.ar        1 LSW      -0.0443
     18 CAO        41.2015    6.3529  109.5483 C.ar        1 LSW      -0.0747
     19 CAP        38.8348    8.7521  110.8525 C.2         1 LSW       0.0166
     20 CAQ        39.6941   16.5345  114.7918 C.3         1 LSW      -0.0354
     21 CAR        39.6362   15.1187  114.1748 C.3         1 LSW      -0.0123
     22 CAS        40.6138   14.8832  112.9898 C.3         1 LSW      -0.0410
     23 CAT        42.0740   11.9441  106.6586 C.3         1 LSW      -0.0125
     24 CAU        40.4810   13.4284  112.4629 C.3         1 LSW       0.0081
     25 CAW        41.1041    8.4577  112.0367 C.3         1 LSW      -0.0013
     26 NAX        42.2837   10.7153  111.7705 N.am        1 LSW      -0.2657
     27 CBB        42.9874    8.9342  110.3473 C.2         1 LSW       0.0613
     28 CBC        41.3920   11.5320  111.2176 C.2         1 LSW       0.2263
     29 CBD        41.2552   11.0061  105.8337 C.ar        1 LSW      -0.0427
     30 CBE        40.1068    8.1827  110.9730 C.2         1 LSW      -0.0424
     31 CBF        39.0453    7.4113  109.1422 C.ar        1 LSW       0.0603
     32 CBG        40.2058    7.2861  109.9109 C.ar        1 LSW      -0.0214
     33 CBI        41.5164   12.9812  111.3786 C.3         1 LSW       0.0683
     34 CBJ        42.3859    9.2892  111.6533 C.3         1 LSW       0.0987
     35 OXT        42.2591   15.2805  107.3852 O.co2       1 LSW      -0.5643
     36 NXZ        38.2396    8.3062  109.7382 N.pl3       1 LSW      -0.2891
     37 H1         40.3353   13.6355  109.8297 H           1 LSW       0.2052
     38 H2         41.4974   14.7058  110.2824 H           1 LSW       0.2052
     39 H3         42.9454   12.6509  109.2143 H           1 LSW       0.1027
     40 H4         40.5264   13.2687  107.4389 H           1 LSW       0.0361
     41 H5         40.7415   11.7777  108.3381 H           1 LSW       0.0361
     42 H6         39.1163   18.4380  114.3569 H           1 LSW       0.1994
     43 H7         38.5032   17.2906  113.3023 H           1 LSW       0.1994
     44 H8         40.1059   17.7550  113.1909 H           1 LSW       0.1994
     45 H9         39.0921    8.6037  103.7253 H           1 LSW       0.0559
     46 H10        38.4999   10.9550  103.8805 H           1 LSW       0.0599
     47 H11        41.0533    7.7733  104.8913 H           1 LSW       0.0599
     48 H12        39.7220    5.1713  106.7614 H           1 LSW       0.0530
     49 H13        41.7206    4.8919  108.1132 H           1 LSW       0.0510
     50 H14        39.8519   12.4676  105.1838 H           1 LSW       0.0557
     51 H15        42.3993    9.2587  106.2184 H           1 LSW       0.0557
     52 H16        38.0054    6.7707  107.4150 H           1 LSW       0.0541
     53 H17        42.0345    6.2300  110.1269 H           1 LSW       0.0540
     54 H18        38.4280    9.4375  111.4905 H           1 LSW       0.0795
     55 H19        38.9884   16.5802  115.6237 H           1 LSW       0.0813
     56 H20        40.6948   16.7425  115.1803 H           1 LSW       0.0813
     57 H21        38.6116   14.9394  113.8375 H           1 LSW       0.0317
     58 H22        39.8588   14.4091  114.9711 H           1 LSW       0.0317
     59 H23        41.6374   15.0558  113.3285 H           1 LSW       0.0270
     60 H24        40.3886   15.5911  112.1899 H           1 LSW       0.0270
     61 H25        42.9407   11.4165  107.0691 H           1 LSW       0.0429
     62 H26        42.4617   12.7402  106.0116 H           1 LSW       0.0429
     63 H27        39.4754   13.2942  112.0576 H           1 LSW       0.0346
     64 H28        40.5792   12.7622  113.3281 H           1 LSW       0.0346
     65 H29        41.4272    7.4893  112.4284 H           1 LSW       0.0390
     66 H30        40.6076    8.9754  112.8616 H           1 LSW       0.0390
     67 H31        42.9835   11.1460  112.2904 H           1 LSW       0.1878
     68 H32        42.5130   13.2252  111.7484 H           1 LSW       0.1099
     69 H33        43.1246    9.0176  112.4088 H           1 LSW       0.0741
     70 H34        37.3663    8.5763  109.4135 H           1 LSW       0.2216
@<TRIPOS>BOND
     1     1     3  ar
     2     4     1   1
     3     1    35  ar
     4     2     4   1
     5    33     2   1
     6     4     5   1
     7     5    23   1
     8    20     6   1
     9    27     7  ar
    10    28     8   2
    11    27     9  ar
    12    11    10  ar
    13    12    10  ar
    14    15    11  ar
    15    16    12  ar
    16    14    13  ar
    17    13    17  ar
    18    18    14  ar
    19    29    15  ar
    20    29    16  ar
    21    17    31  ar
    22    32    18  ar
    23    30    19   2
    24    19    36   1
    25    21    20   1
    26    22    21   1
    27    24    22   1
    28    23    29   1
    29    33    24   1
    30    30    25   1
    31    25    34   1
    32    26    28  am
    33    34    26   1
    34    34    27   1
    35    28    33   1
    36    30    32   1
    37    31    32  ar
    38    31    36   1
    39     2    37   1
    40     2    38   1
    41     4    39   1
    42     5    40   1
    43     5    41   1
    44     6    42   1
    45     6    43   1
    46     6    44   1
    47    10    45   1
    48    11    46   1
    49    12    47   1
    50    13    48   1
    51    14    49   1
    52    15    50   1
    53    16    51   1
    54    17    52   1
    55    18    53   1
    56    19    54   1
    57    20    55   1
    58    20    56   1
    59    21    57   1
    60    21    58   1
    61    22    59   1
    62    22    60   1
    63    23    61   1
    64    23    62   1
    65    24    63   1
    66    24    64   1
    67    25    65   1
    68    25    66   1
    69    26    67   1
    70    33    68   1
    71    34    69   1
    72    36    70   1
@<TRIPOS>SUBSTRUCTURE
     1  LSW      1

