@<TRIPOS>MOLECULE
3l3n_ligand_049
    70    72
SMALL
GAST_HUCK
****
This file was generated by PARSER (from files_GN.cpp)

@<TRIPOS>ATOM
      1 C          41.9889    6.9500  112.3826 C.2         1 LSW       0.0847
      2 N          43.4621    8.8160  111.7588 N.4         1 LSW       0.2599
      3 O          42.0089    5.6003  112.2889 O.co2       1 LSW      -0.5643
      4 CA         43.2181    7.7013  112.7186 C.3         1 LSW       0.0340
      5 CB         43.1470    8.2371  114.1947 C.3         1 LSW       0.0122
      6 NAA        42.3608    8.0918  106.0552 N.4         1 LSW       0.2185
      7 OAC        44.6436   13.2416  111.3537 O.co2       1 LSW      -0.5665
      8 OAD        45.5692    9.2726  109.0895 O.2         1 LSW      -0.3908
      9 OAF        46.6907   13.0531  110.2702 O.co2       1 LSW      -0.5665
     10 CAG        44.1991    3.3465  115.8839 C.ar        1 LSW      -0.0687
     11 CAH        42.9922    3.9958  115.5785 C.ar        1 LSW      -0.0686
     12 CAI        45.3900    4.0861  115.9579 C.ar        1 LSW      -0.0686
     13 CAJ        40.2966   15.4017  111.6444 C.ar        1 LSW      -0.0768
     14 CAK        40.3067   14.0112  111.3973 C.ar        1 LSW      -0.0792
     15 CAL        42.9741    5.3835  115.3554 C.ar        1 LSW      -0.0603
     16 CAM        45.3782    5.4697  115.7071 C.ar        1 LSW      -0.0603
     17 CAN        41.2019   16.2517  110.9761 C.ar        1 LSW      -0.0443
     18 CAO        41.2332   13.4510  110.4911 C.ar        1 LSW      -0.0747
     19 CAP        43.6997   15.3217  108.6117 C.2         1 LSW       0.0166
     20 CAQ        41.5967    6.8728  106.3447 C.3         1 LSW      -0.0354
     21 CAR        41.1829    6.7137  107.8298 C.3         1 LSW      -0.0123
     22 CAS        42.3556    6.8466  108.8489 C.3         1 LSW      -0.0410
     23 CAT        44.1894    7.6243  115.1768 C.3         1 LSW      -0.0125
     24 CAU        42.4820    8.2771  109.4505 C.3         1 LSW       0.0081
     25 CAW        43.6331   12.7700  108.3732 C.3         1 LSW      -0.0013
     26 NAX        44.1478   10.8289  109.8334 N.am        1 LSW      -0.2657
     27 CBB        45.3544   12.8032  110.2918 C.2         1 LSW       0.0613
     28 CBC        44.5771    9.5699  109.7439 C.2         1 LSW       0.2263
     29 CBD        44.1722    6.1429  115.3845 C.ar        1 LSW      -0.0427
     30 CBE        43.1575   14.0699  108.9118 C.2         1 LSW      -0.0424
     31 CBF        42.1101   15.6835  110.0677 C.ar        1 LSW       0.0603
     32 CBG        42.1353   14.3051  109.8296 C.ar        1 LSW      -0.0214
     33 CBI        43.7735    8.4986  110.3273 C.3         1 LSW       0.0683
     34 CBJ        44.7114   12.0063  109.2262 C.3         1 LSW       0.0987
     35 OXT        40.8092    7.6041  112.2707 O.co2       1 LSW      -0.5643
     36 NXZ        43.0580   16.2672  109.3197 N.pl3       1 LSW      -0.2891
     37 H1         44.2651    9.3292  112.1334 H           1 LSW       0.2052
     38 H2         42.6600    9.4479  111.7855 H           1 LSW       0.2052
     39 H3         44.0693    7.0207  112.6341 H           1 LSW       0.1027
     40 H4         42.1490    8.1044  114.6247 H           1 LSW       0.0361
     41 H5         43.3033    9.3208  114.1890 H           1 LSW       0.0361
     42 H6         42.5394    8.1465  105.0446 H           1 LSW       0.1994
     43 H7         43.2574    8.0687  106.5498 H           1 LSW       0.1994
     44 H8         41.8279    8.9172  106.3480 H           1 LSW       0.1994
     45 H9         44.2103    2.3406  116.0621 H           1 LSW       0.0559
     46 H10        42.1267    3.4596  115.5287 H           1 LSW       0.0599
     47 H11        46.2656    3.6179  116.2013 H           1 LSW       0.0599
     48 H12        39.6266   15.7982  112.3087 H           1 LSW       0.0530
     49 H13        39.6343   13.4075  111.8758 H           1 LSW       0.0510
     50 H14        42.0767    5.8305  115.1655 H           1 LSW       0.0557
     51 H15        46.2597    5.9906  115.7724 H           1 LSW       0.0557
     52 H16        41.1931   17.2612  111.1423 H           1 LSW       0.0541
     53 H17        41.2353   12.4472  110.3105 H           1 LSW       0.0540
     54 H18        44.4817   15.4993  107.9812 H           1 LSW       0.0795
     55 H19        42.1980    6.0131  106.0403 H           1 LSW       0.0813
     56 H20        40.6919    6.8938  105.7347 H           1 LSW       0.0813
     57 H21        40.7408    5.7198  107.9421 H           1 LSW       0.0317
     58 H22        40.3998    7.4385  108.0625 H           1 LSW       0.0317
     59 H23        43.2965    6.5636  108.3675 H           1 LSW       0.0270
     60 H24        42.1955    6.1433  109.6671 H           1 LSW       0.0270
     61 H25        44.0432    8.0900  116.1543 H           1 LSW       0.0429
     62 H26        45.1770    7.9364  114.8231 H           1 LSW       0.0429
     63 H27        41.5817    8.4737  110.0587 H           1 LSW       0.0346
     64 H28        42.4534    8.9812  108.6050 H           1 LSW       0.0346
     65 H29        44.0554   12.9599  107.3807 H           1 LSW       0.0390
     66 H30        42.7645   12.1284  108.1994 H           1 LSW       0.0390
     67 H31        43.3480   10.9694  110.3626 H           1 LSW       0.1878
     68 H32        44.3727    7.5822  110.3200 H           1 LSW       0.1099
     69 H33        45.5019   11.7136  108.5325 H           1 LSW       0.0741
     70 H34        43.2496   17.2178  109.2935 H           1 LSW       0.2216
@<TRIPOS>BOND
     1     1     3  ar
     2     4     1   1
     3     1    35  ar
     4     2     4   1
     5    33     2   1
     6     4     5   1
     7     5    23   1
     8    20     6   1
     9    27     7  ar
    10    28     8   2
    11    27     9  ar
    12    11    10  ar
    13    12    10  ar
    14    15    11  ar
    15    16    12  ar
    16    14    13  ar
    17    13    17  ar
    18    18    14  ar
    19    29    15  ar
    20    29    16  ar
    21    17    31  ar
    22    32    18  ar
    23    30    19   2
    24    19    36   1
    25    21    20   1
    26    22    21   1
    27    24    22   1
    28    23    29   1
    29    33    24   1
    30    30    25   1
    31    25    34   1
    32    26    28  am
    33    34    26   1
    34    34    27   1
    35    28    33   1
    36    30    32   1
    37    31    32  ar
    38    31    36   1
    39     2    37   1
    40     2    38   1
    41     4    39   1
    42     5    40   1
    43     5    41   1
    44     6    42   1
    45     6    43   1
    46     6    44   1
    47    10    45   1
    48    11    46   1
    49    12    47   1
    50    13    48   1
    51    14    49   1
    52    15    50   1
    53    16    51   1
    54    17    52   1
    55    18    53   1
    56    19    54   1
    57    20    55   1
    58    20    56   1
    59    21    57   1
    60    21    58   1
    61    22    59   1
    62    22    60   1
    63    23    61   1
    64    23    62   1
    65    24    63   1
    66    24    64   1
    67    25    65   1
    68    25    66   1
    69    26    67   1
    70    33    68   1
    71    34    69   1
    72    36    70   1
@<TRIPOS>SUBSTRUCTURE
     1  LSW      1

