@<TRIPOS>MOLECULE
3l3n_ligand_038
    70    72
SMALL
GAST_HUCK
****
This file was generated by PARSER (from files_GN.cpp)

@<TRIPOS>ATOM
      1 C          40.3376    7.3824  109.2922 C.2         1 LSW       0.0847
      2 N          41.7279    7.7020  111.2067 N.4         1 LSW       0.2599
      3 O          39.2492    8.1653  109.4622 O.co2       1 LSW      -0.5643
      4 CA         41.6761    7.8327  109.7231 C.3         1 LSW       0.0340
      5 CB         42.8055    7.0666  108.9497 C.3         1 LSW       0.0122
      6 NAA        41.3998    6.9166  116.4348 N.4         1 LSW       0.2185
      7 OAC        45.2372   10.7108  108.9581 O.co2       1 LSW      -0.5665
      8 OAD        44.7243    9.1344  111.0320 O.2         1 LSW      -0.3908
      9 OAF        45.9913   12.4583  110.2691 O.co2       1 LSW      -0.5665
     10 CAG        40.8439    9.9449  105.1353 C.ar        1 LSW      -0.0687
     11 CAH        41.3305   10.6042  106.2769 C.ar        1 LSW      -0.0686
     12 CAI        41.2526    8.6243  104.8669 C.ar        1 LSW      -0.0686
     13 CAJ        41.1242   16.3060  107.7119 C.ar        1 LSW      -0.0768
     14 CAK        42.4136   15.7300  107.6555 C.ar        1 LSW      -0.0792
     15 CAL        42.2173    9.9474  107.1447 C.ar        1 LSW      -0.0603
     16 CAM        42.1262    7.9590  105.7459 C.ar        1 LSW      -0.0603
     17 CAN        40.2558   16.0101  108.7822 C.ar        1 LSW      -0.0443
     18 CAO        42.8482   14.8566  108.6760 C.ar        1 LSW      -0.0747
     19 CAP        40.9138   13.9077  111.5884 C.2         1 LSW       0.0166
     20 CAQ        42.2046    5.7169  116.1747 C.3         1 LSW      -0.0354
     21 CAR        43.2937    6.0125  115.1132 C.3         1 LSW      -0.0123
     22 CAS        42.7254    6.3206  113.6956 C.3         1 LSW      -0.0410
     23 CAT        43.5266    7.9026  107.8495 C.3         1 LSW      -0.0125
     24 CAU        43.5873    7.3207  112.8503 C.3         1 LSW       0.0081
     25 CAW        43.3324   13.0436  111.3093 C.3         1 LSW      -0.0013
     26 NAX        43.0582   10.6059  111.1195 N.am        1 LSW      -0.2657
     27 CBB        44.9771   11.6496  109.9003 C.2         1 LSW       0.0613
     28 CBC        43.5801    9.4019  111.3632 C.2         1 LSW       0.2263
     29 CBD        42.6208    8.6104  106.9002 C.ar        1 LSW      -0.0427
     30 CBE        42.1230   13.7957  110.8971 C.2         1 LSW      -0.0424
     31 CBF        40.7011   15.1375  109.7910 C.ar        1 LSW       0.0603
     32 CBG        41.9786   14.5740  109.7453 C.ar        1 LSW      -0.0214
     33 CBI        42.7653    8.3890  112.0507 C.3         1 LSW       0.0683
     34 CBJ        43.5912   11.7616  110.4316 C.3         1 LSW       0.0987
     35 OXT        40.1627    6.1440  108.7818 O.co2       1 LSW      -0.5643
     36 NXZ        40.0852   14.7147  110.9025 N.pl3       1 LSW      -0.2891
     37 H1         41.7623    6.7022  111.4133 H           1 LSW       0.2052
     38 H2         40.8276    8.0379  111.5511 H           1 LSW       0.2052
     39 H3         41.7291    8.8913  109.4791 H           1 LSW       0.1027
     40 H4         42.4229    6.1441  108.5013 H           1 LSW       0.0361
     41 H5         43.5722    6.7474  109.6568 H           1 LSW       0.0361
     42 H6         40.6364    6.7262  117.0841 H           1 LSW       0.1994
     43 H7         40.9785    7.2451  115.5711 H           1 LSW       0.1994
     44 H8         41.9905    7.6634  116.8010 H           1 LSW       0.1994
     45 H9         40.1945   10.4207  104.5075 H           1 LSW       0.0559
     46 H10        41.0326   11.5629  106.4794 H           1 LSW       0.0599
     47 H11        40.9035    8.1443  104.0335 H           1 LSW       0.0599
     48 H12        40.8213   16.9470  106.9749 H           1 LSW       0.0530
     49 H13        43.0354   15.9500  106.8739 H           1 LSW       0.0510
     50 H14        42.5627   10.4484  107.9663 H           1 LSW       0.0557
     51 H15        42.4028    6.9934  105.5403 H           1 LSW       0.0557
     52 H16        39.3242   16.4261  108.8308 H           1 LSW       0.0541
     53 H17        43.7829   14.4431  108.6340 H           1 LSW       0.0540
     54 H18        40.6931   13.4556  112.4763 H           1 LSW       0.0795
     55 H19        41.5520    4.9085  115.8375 H           1 LSW       0.0813
     56 H20        42.6725    5.4110  117.1121 H           1 LSW       0.0813
     57 H21        43.9620    5.1486  115.0449 H           1 LSW       0.0317
     58 H22        43.8875    6.8529  115.4734 H           1 LSW       0.0317
     59 H23        41.7119    6.7077  113.7895 H           1 LSW       0.0270
     60 H24        42.6412    5.3764  113.1470 H           1 LSW       0.0270
     61 H25        44.1917    7.2465  107.2832 H           1 LSW       0.0429
     62 H26        44.1674    8.6224  108.3610 H           1 LSW       0.0429
     63 H27        44.2008    6.7576  112.1428 H           1 LSW       0.0346
     64 H28        44.2850    7.8408  113.5114 H           1 LSW       0.0346
     65 H29        43.2474   12.7566  112.3620 H           1 LSW       0.0390
     66 H30        44.1641   13.7468  111.2483 H           1 LSW       0.0390
     67 H31        42.1431   10.7173  111.4321 H           1 LSW       0.1878
     68 H32        42.2062    8.9432  112.8113 H           1 LSW       0.1099
     69 H33        42.9746   11.8557  109.5341 H           1 LSW       0.0741
     70 H34        39.1819   14.9669  111.1727 H           1 LSW       0.2216
@<TRIPOS>BOND
     1     1     3  ar
     2     4     1   1
     3     1    35  ar
     4     2     4   1
     5    33     2   1
     6     4     5   1
     7     5    23   1
     8    20     6   1
     9    27     7  ar
    10    28     8   2
    11    27     9  ar
    12    11    10  ar
    13    12    10  ar
    14    15    11  ar
    15    16    12  ar
    16    14    13  ar
    17    13    17  ar
    18    18    14  ar
    19    29    15  ar
    20    29    16  ar
    21    17    31  ar
    22    32    18  ar
    23    30    19   2
    24    19    36   1
    25    21    20   1
    26    22    21   1
    27    24    22   1
    28    23    29   1
    29    33    24   1
    30    30    25   1
    31    25    34   1
    32    26    28  am
    33    34    26   1
    34    34    27   1
    35    28    33   1
    36    30    32   1
    37    31    32  ar
    38    31    36   1
    39     2    37   1
    40     2    38   1
    41     4    39   1
    42     5    40   1
    43     5    41   1
    44     6    42   1
    45     6    43   1
    46     6    44   1
    47    10    45   1
    48    11    46   1
    49    12    47   1
    50    13    48   1
    51    14    49   1
    52    15    50   1
    53    16    51   1
    54    17    52   1
    55    18    53   1
    56    19    54   1
    57    20    55   1
    58    20    56   1
    59    21    57   1
    60    21    58   1
    61    22    59   1
    62    22    60   1
    63    23    61   1
    64    23    62   1
    65    24    63   1
    66    24    64   1
    67    25    65   1
    68    25    66   1
    69    26    67   1
    70    33    68   1
    71    34    69   1
    72    36    70   1
@<TRIPOS>SUBSTRUCTURE
     1  LSW      1

