@<TRIPOS>MOLECULE
3l3n_ligand_048
    70    72
SMALL
GAST_HUCK
****
This file was generated by PARSER (from files_GN.cpp)

@<TRIPOS>ATOM
      1 C          42.5182   12.0815  105.9280 C.2         1 LSW       0.0847
      2 N          41.6015   14.3464  106.3961 N.4         1 LSW       0.2599
      3 O          43.7579   12.6108  105.7875 O.co2       1 LSW      -0.5643
      4 CA         41.3905   12.8651  106.4894 C.3         1 LSW       0.0340
      5 CB         40.0274   12.5819  105.7822 C.3         1 LSW       0.0122
      6 NAA        44.3620   19.6355  104.9815 N.4         1 LSW       0.2185
      7 OAC        45.6654   14.9086  111.3305 O.co2       1 LSW      -0.5665
      8 OAD        41.7126   14.0561  109.3344 O.2         1 LSW      -0.3908
      9 OAF        46.8400   13.2081  110.2421 O.co2       1 LSW      -0.5665
     10 CAG        38.3214    8.3447  108.4059 C.ar        1 LSW      -0.0687
     11 CAH        39.4286    8.0279  107.5968 C.ar        1 LSW      -0.0686
     12 CAI        37.6659    9.5800  108.2439 C.ar        1 LSW      -0.0686
     13 CAJ        41.4760    9.9386  113.3954 C.ar        1 LSW      -0.0768
     14 CAK        41.3004   11.1820  112.7516 C.ar        1 LSW      -0.0792
     15 CAL        39.8918    8.9538  106.6448 C.ar        1 LSW      -0.0603
     16 CAM        38.1261   10.5028  107.2836 C.ar        1 LSW      -0.0603
     17 CAN        42.5164    9.0663  113.0068 C.ar        1 LSW      -0.0443
     18 CAO        42.1651   11.5653  111.6969 C.ar        1 LSW      -0.0747
     19 CAP        44.9352    9.6098  110.4383 C.2         1 LSW       0.0166
     20 CAQ        43.4549   18.4858  105.0575 C.3         1 LSW      -0.0354
     21 CAR        42.7340   18.4459  106.4259 C.3         1 LSW      -0.0123
     22 CAS        41.5172   17.4661  106.4764 C.3         1 LSW      -0.0410
     23 CAT        39.6644   11.1237  105.3673 C.3         1 LSW      -0.0125
     24 CAU        41.5456   16.4726  107.6799 C.3         1 LSW       0.0081
     25 CAW        44.3803   11.8939  109.3771 C.3         1 LSW      -0.0013
     26 NAX        43.9224   14.2337  108.9909 N.am        1 LSW      -0.2657
     27 CBB        45.6550   13.8003  110.5446 C.2         1 LSW       0.0613
     28 CBC        42.6496   14.4712  108.6569 C.2         1 LSW       0.2263
     29 CBD        39.2375   10.1996  106.4574 C.ar        1 LSW      -0.0427
     30 CBE        44.2041   10.7988  110.3537 C.2         1 LSW      -0.0424
     31 CBF        43.3735    9.4679  111.9695 C.ar        1 LSW       0.0603
     32 CBG        43.2090   10.6960  111.3258 C.ar        1 LSW      -0.0214
     33 CBI        42.3505   15.1585  107.4073 C.3         1 LSW       0.0683
     34 CBJ        44.3531   13.3173  110.0131 C.3         1 LSW       0.0987
     35 OXT        42.3960   10.7359  105.8309 O.co2       1 LSW      -0.5643
     36 NXZ        44.4251    8.8341  111.4153 N.pl3       1 LSW      -0.2891
     37 H1         40.6744   14.7692  106.3159 H           1 LSW       0.2052
     38 H2         42.0638   14.5141  105.4946 H           1 LSW       0.2052
     39 H3         41.2629   12.5795  107.5417 H           1 LSW       0.1027
     40 H4         39.9680   13.1898  104.8717 H           1 LSW       0.0361
     41 H5         39.2243   12.9367  106.4473 H           1 LSW       0.0361
     42 H6         44.8878   19.5970  104.1073 H           1 LSW       0.1994
     43 H7         45.0110   19.6164  105.7702 H           1 LSW       0.1994
     44 H8         43.8208   20.5014  105.0131 H           1 LSW       0.1994
     45 H9         37.9710    7.6642  109.0798 H           1 LSW       0.0559
     46 H10        39.8992    7.1284  107.7037 H           1 LSW       0.0599
     47 H11        36.8538    9.8051  108.8197 H           1 LSW       0.0599
     48 H12        40.8368    9.6686  114.1494 H           1 LSW       0.0530
     49 H13        40.5459   11.8074  113.0456 H           1 LSW       0.0510
     50 H14        40.6811    8.6893  106.0489 H           1 LSW       0.0557
     51 H15        37.6267   11.3886  107.1732 H           1 LSW       0.0557
     52 H16        42.6345    8.1616  113.4687 H           1 LSW       0.0541
     53 H17        42.0433   12.4627  111.2263 H           1 LSW       0.0540
     54 H18        45.7295    9.3541  109.8492 H           1 LSW       0.0795
     55 H19        44.0409   17.5724  104.9263 H           1 LSW       0.0813
     56 H20        42.7299   18.5594  104.2410 H           1 LSW       0.0813
     57 H21        42.3733   19.4531  106.6592 H           1 LSW       0.0317
     58 H22        43.4777   18.1834  107.1811 H           1 LSW       0.0317
     59 H23        41.4402   16.9002  105.5424 H           1 LSW       0.0270
     60 H24        40.6074   18.0675  106.5475 H           1 LSW       0.0270
     61 H25        40.5181   10.7102  104.8235 H           1 LSW       0.0429
     62 H26        38.8357   11.1739  104.6521 H           1 LSW       0.0429
     63 H27        40.5092   16.2030  107.9226 H           1 LSW       0.0346
     64 H28        41.9378   16.9987  108.5609 H           1 LSW       0.0346
     65 H29        43.5622   11.7748  108.6532 H           1 LSW       0.0390
     66 H30        45.3160   11.7442  108.8227 H           1 LSW       0.0390
     67 H31        44.6100   14.6201  108.4177 H           1 LSW       0.1878
     68 H32        43.2943   15.4589  106.9379 H           1 LSW       0.1099
     69 H33        43.6329   13.3363  110.8477 H           1 LSW       0.0741
     70 H34        44.7684    7.9641  111.6723 H           1 LSW       0.2216
@<TRIPOS>BOND
     1     1     3  ar
     2     4     1   1
     3     1    35  ar
     4     2     4   1
     5    33     2   1
     6     4     5   1
     7     5    23   1
     8    20     6   1
     9    27     7  ar
    10    28     8   2
    11    27     9  ar
    12    11    10  ar
    13    12    10  ar
    14    15    11  ar
    15    16    12  ar
    16    14    13  ar
    17    13    17  ar
    18    18    14  ar
    19    29    15  ar
    20    29    16  ar
    21    17    31  ar
    22    32    18  ar
    23    30    19   2
    24    19    36   1
    25    21    20   1
    26    22    21   1
    27    24    22   1
    28    23    29   1
    29    33    24   1
    30    30    25   1
    31    25    34   1
    32    26    28  am
    33    34    26   1
    34    34    27   1
    35    28    33   1
    36    30    32   1
    37    31    32  ar
    38    31    36   1
    39     2    37   1
    40     2    38   1
    41     4    39   1
    42     5    40   1
    43     5    41   1
    44     6    42   1
    45     6    43   1
    46     6    44   1
    47    10    45   1
    48    11    46   1
    49    12    47   1
    50    13    48   1
    51    14    49   1
    52    15    50   1
    53    16    51   1
    54    17    52   1
    55    18    53   1
    56    19    54   1
    57    20    55   1
    58    20    56   1
    59    21    57   1
    60    21    58   1
    61    22    59   1
    62    22    60   1
    63    23    61   1
    64    23    62   1
    65    24    63   1
    66    24    64   1
    67    25    65   1
    68    25    66   1
    69    26    67   1
    70    33    68   1
    71    34    69   1
    72    36    70   1
@<TRIPOS>SUBSTRUCTURE
     1  LSW      1

