@<TRIPOS>MOLECULE
3l3n_ligand_041
    70    72
SMALL
GAST_HUCK
****
This file was generated by PARSER (from files_GN.cpp)

@<TRIPOS>ATOM
      1 C          40.9872    6.7611  109.2991 C.2         1 LSW       0.0847
      2 N          43.2596    7.5362  108.9060 N.4         1 LSW       0.2599
      3 O          39.6736    7.0937  109.3377 O.co2       1 LSW      -0.5643
      4 CA         41.8800    7.4268  108.3353 C.3         1 LSW       0.0340
      5 CB         41.8908    6.6880  106.9457 C.3         1 LSW       0.0122
      6 NAA        43.2972    6.9424  116.0541 N.4         1 LSW       0.2185
      7 OAC        44.7916   13.3642  111.2496 O.co2       1 LSW      -0.5665
      8 OAD        45.4148    9.3303  108.7607 O.2         1 LSW      -0.3908
      9 OAF        46.8345   12.5210  110.5403 O.co2       1 LSW      -0.5665
     10 CAG        38.5667   10.1095  104.8769 C.ar        1 LSW      -0.0687
     11 CAH        38.3882    8.7796  105.2991 C.ar        1 LSW      -0.0686
     12 CAI        39.8657   10.6275  104.7257 C.ar        1 LSW      -0.0686
     13 CAJ        40.1828   13.4986  112.2336 C.ar        1 LSW      -0.0768
     14 CAK        40.4453   12.3536  111.4475 C.ar        1 LSW      -0.0792
     15 CAL        39.5077    7.9706  105.5639 C.ar        1 LSW      -0.0603
     16 CAM        40.9832    9.8181  105.0004 C.ar        1 LSW      -0.0603
     17 CAN        40.8499   14.7102  111.9667 C.ar        1 LSW      -0.0443
     18 CAO        41.3534   12.4151  110.3707 C.ar        1 LSW      -0.0747
     19 CAP        43.3347   15.3138  109.4851 C.2         1 LSW       0.0166
     20 CAQ        42.8880    6.6537  114.6713 C.3         1 LSW      -0.0354
     21 CAR        43.5558    7.6456  113.6902 C.3         1 LSW      -0.0123
     22 CAS        43.1338    7.4411  112.2088 C.3         1 LSW      -0.0410
     23 CAT        42.0098    7.6124  105.7027 C.3         1 LSW      -0.0125
     24 CAU        44.1552    8.0618  111.2054 C.3         1 LSW       0.0081
     25 CAW        43.8715   13.0879  108.3689 C.3         1 LSW      -0.0013
     26 NAX        44.1141   10.9449  109.5686 N.am        1 LSW      -0.2657
     27 CBB        45.5067   12.7129  110.3038 C.2         1 LSW       0.0613
     28 CBC        44.3812    9.6661  109.3265 C.2         1 LSW       0.2263
     29 CBD        40.8241    8.4771  105.4292 C.ar        1 LSW      -0.0427
     30 CBE        43.0660   13.9652  109.2447 C.2         1 LSW      -0.0424
     31 CBF        41.7664   14.7488  110.9015 C.ar        1 LSW       0.0603
     32 CBG        42.0312   13.6222  110.1182 C.ar        1 LSW      -0.0214
     33 CBI        43.5205    8.6306  109.8979 C.3         1 LSW       0.0683
     34 CBJ        44.8299   12.1079  109.1291 C.3         1 LSW       0.0987
     35 OXT        41.3517    5.5780  109.8684 O.co2       1 LSW      -0.5643
     36 NXZ        42.5651   15.7467  110.4976 N.pl3       1 LSW      -0.2891
     37 H1         43.9195    7.6580  108.1307 H           1 LSW       0.2052
     38 H2         43.4843    6.6453  109.3445 H           1 LSW       0.2052
     39 H3         41.4969    8.4415  108.1862 H           1 LSW       0.1027
     40 H4         40.9925    6.0794  106.8268 H           1 LSW       0.0361
     41 H5         42.7293    5.9771  106.9180 H           1 LSW       0.0361
     42 H6         42.9150    6.2297  116.6837 H           1 LSW       0.1994
     43 H7         42.9405    7.8620  116.3329 H           1 LSW       0.1994
     44 H8         44.3178    6.9369  116.1206 H           1 LSW       0.1994
     45 H9         37.7537   10.6967  104.6798 H           1 LSW       0.0559
     46 H10        37.4451    8.4013  105.4114 H           1 LSW       0.0599
     47 H11        39.9957   11.5906  104.4106 H           1 LSW       0.0599
     48 H12        39.5201   13.4456  113.0078 H           1 LSW       0.0530
     49 H13        39.9730   11.4719  111.6604 H           1 LSW       0.0510
     50 H14        39.3506    7.0034  105.8628 H           1 LSW       0.0557
     51 H15        41.9187   10.2169  104.8764 H           1 LSW       0.0557
     52 H16        40.6885   15.5370  112.5420 H           1 LSW       0.0541
     53 H17        41.5222   11.5855  109.7994 H           1 LSW       0.0540
     54 H18        44.0870   15.8573  109.0580 H           1 LSW       0.0795
     55 H19        41.7983    6.7330  114.6169 H           1 LSW       0.0813
     56 H20        43.1752    5.6285  114.4251 H           1 LSW       0.0813
     57 H21        44.6412    7.5526  113.7780 H           1 LSW       0.0317
     58 H22        43.2737    8.6589  113.9892 H           1 LSW       0.0317
     59 H23        42.1549    7.9041  112.0697 H           1 LSW       0.0270
     60 H24        43.0306    6.3738  112.0008 H           1 LSW       0.0270
     61 H25        42.1647    6.9864  104.8179 H           1 LSW       0.0429
     62 H26        42.9120    8.2181  105.8156 H           1 LSW       0.0429
     63 H27        44.8978    7.2993  110.9429 H           1 LSW       0.0346
     64 H28        44.6840    8.8739  111.7106 H           1 LSW       0.0346
     65 H29        44.4856   13.7211  107.7161 H           1 LSW       0.0390
     66 H30        43.2066   12.5218  107.7102 H           1 LSW       0.0390
     67 H31        43.3553   11.1224  110.1434 H           1 LSW       0.1878
     68 H32        42.5680    9.0884  110.1905 H           1 LSW       0.1099
     69 H33        45.6016   11.8211  108.4142 H           1 LSW       0.0741
     70 H34        42.6449   16.6093  110.9336 H           1 LSW       0.2216
@<TRIPOS>BOND
     1     1     3  ar
     2     4     1   1
     3     1    35  ar
     4     2     4   1
     5    33     2   1
     6     4     5   1
     7     5    23   1
     8    20     6   1
     9    27     7  ar
    10    28     8   2
    11    27     9  ar
    12    11    10  ar
    13    12    10  ar
    14    15    11  ar
    15    16    12  ar
    16    14    13  ar
    17    13    17  ar
    18    18    14  ar
    19    29    15  ar
    20    29    16  ar
    21    17    31  ar
    22    32    18  ar
    23    30    19   2
    24    19    36   1
    25    21    20   1
    26    22    21   1
    27    24    22   1
    28    23    29   1
    29    33    24   1
    30    30    25   1
    31    25    34   1
    32    26    28  am
    33    34    26   1
    34    34    27   1
    35    28    33   1
    36    30    32   1
    37    31    32  ar
    38    31    36   1
    39     2    37   1
    40     2    38   1
    41     4    39   1
    42     5    40   1
    43     5    41   1
    44     6    42   1
    45     6    43   1
    46     6    44   1
    47    10    45   1
    48    11    46   1
    49    12    47   1
    50    13    48   1
    51    14    49   1
    52    15    50   1
    53    16    51   1
    54    17    52   1
    55    18    53   1
    56    19    54   1
    57    20    55   1
    58    20    56   1
    59    21    57   1
    60    21    58   1
    61    22    59   1
    62    22    60   1
    63    23    61   1
    64    23    62   1
    65    24    63   1
    66    24    64   1
    67    25    65   1
    68    25    66   1
    69    26    67   1
    70    33    68   1
    71    34    69   1
    72    36    70   1
@<TRIPOS>SUBSTRUCTURE
     1  LSW      1

