@<TRIPOS>MOLECULE
3l3n_ligand_076
    70    72
SMALL
GAST_HUCK
****
This file was generated by PARSER (from files_GN.cpp)

@<TRIPOS>ATOM
      1 C          47.0180   13.7170  111.2118 C.2         1 LSW       0.0847
      2 N          44.9648   14.4909  112.4718 N.4         1 LSW       0.2599
      3 O          46.4833   13.1242  110.1196 O.co2       1 LSW      -0.5643
      4 CA         46.3050   14.8320  111.9071 C.3         1 LSW       0.0340
      5 CB         47.1682   15.4421  113.0525 C.3         1 LSW       0.0122
      6 NAA        39.4519   15.1131  110.1016 N.4         1 LSW       0.2185
      7 OAC        41.1341   17.2823  108.8277 O.co2       1 LSW      -0.5665
      8 OAD        43.2820   13.1348  109.6725 O.2         1 LSW      -0.3908
      9 OAF        42.9086   18.1803  109.9766 O.co2       1 LSW      -0.5665
     10 CAG        49.1382   18.5777  116.6046 C.ar        1 LSW      -0.0687
     11 CAH        49.0618   17.1729  116.6384 C.ar        1 LSW      -0.0686
     12 CAI        48.3181   19.3008  115.7213 C.ar        1 LSW      -0.0686
     13 CAJ        41.0342   10.1508  107.1748 C.ar        1 LSW      -0.0768
     14 CAK        42.3906   10.5274  107.2756 C.ar        1 LSW      -0.0792
     15 CAL        48.1638   16.4932  115.7933 C.ar        1 LSW      -0.0603
     16 CAM        47.4356   18.6171  114.8616 C.ar        1 LSW      -0.0603
     17 CAN        40.0252   11.1378  107.1494 C.ar        1 LSW      -0.0443
     18 CAO        42.7589   11.8876  107.3465 C.ar        1 LSW      -0.0747
     19 CAP        40.4283   14.6615  107.3873 C.2         1 LSW       0.0166
     20 CAQ        40.3931   15.2951  111.2108 C.3         1 LSW      -0.0354
     21 CAR        40.6404   13.9695  111.9580 C.3         1 LSW      -0.0123
     22 CAS        41.7716   14.0560  113.0347 C.3         1 LSW      -0.0410
     23 CAT        46.4380   16.4833  113.9515 C.3         1 LSW      -0.0125
     24 CAU        42.9446   13.0601  112.7897 C.3         1 LSW       0.0081
     25 CAW        42.9554   15.1680  107.6396 C.3         1 LSW      -0.0013
     26 NAX        43.4340   15.2988  110.2287 N.am        1 LSW      -0.2657
     27 CBB        42.4407   17.1874  109.1781 C.2         1 LSW       0.0613
     28 CBC        43.5313   14.0071  110.5105 C.2         1 LSW       0.2263
     29 CBD        47.3544   17.2065  114.8741 C.ar        1 LSW      -0.0427
     30 CBE        41.7684   14.2674  107.5262 C.2         1 LSW      -0.0424
     31 CBF        40.4067   12.4818  107.2590 C.ar        1 LSW       0.0603
     32 CBG        41.7449   12.8762  107.3800 C.ar        1 LSW      -0.0214
     33 CBI        44.0442   13.5401  111.7944 C.3         1 LSW       0.0683
     34 CBJ        43.2628   15.9735  108.9538 C.3         1 LSW       0.0987
     35 OXT        48.2721   13.3273  111.5291 O.co2       1 LSW      -0.5643
     36 NXZ        39.6441   13.5817  107.2518 N.pl3       1 LSW      -0.2891
     37 H1         44.4545   15.3620  112.5988 H           1 LSW       0.2052
     38 H2         45.1302   14.1152  113.4064 H           1 LSW       0.2052
     39 H3         46.1376   15.6196  111.1651 H           1 LSW       0.1027
     40 H4         48.0354   15.9207  112.5981 H           1 LSW       0.0361
     41 H5         47.5243   14.6252  113.6854 H           1 LSW       0.0361
     42 H6         39.5281   15.9141  109.4630 H           1 LSW       0.1994
     43 H7         38.4943   15.0708  110.4897 H           1 LSW       0.1994
     44 H8         39.6755   14.2401  109.6087 H           1 LSW       0.1994
     45 H9         49.7885   19.0689  117.2179 H           1 LSW       0.0559
     46 H10        49.6597   16.6451  117.2738 H           1 LSW       0.0599
     47 H11        48.3694   20.3211  115.6990 H           1 LSW       0.0599
     48 H12        40.7760    9.1645  107.1227 H           1 LSW       0.0530
     49 H13        43.1041    9.8055  107.2854 H           1 LSW       0.0510
     50 H14        48.1188   15.4746  115.8443 H           1 LSW       0.0557
     51 H15        46.8556   19.1657  114.2223 H           1 LSW       0.0557
     52 H16        39.0425   10.8828  107.0582 H           1 LSW       0.0541
     53 H17        43.7408   12.1493  107.3935 H           1 LSW       0.0540
     54 H18        40.0759   15.6125  107.3553 H           1 LSW       0.0795
     55 H19        40.0351   16.0765  111.8906 H           1 LSW       0.0813
     56 H20        41.3437   15.6334  110.7923 H           1 LSW       0.0813
     57 H21        40.8800   13.2115  111.2108 H           1 LSW       0.0317
     58 H22        39.7040   13.6587  112.4473 H           1 LSW       0.0317
     59 H23        41.3253   13.8535  114.0147 H           1 LSW       0.0270
     60 H24        42.1800   15.0759  113.0878 H           1 LSW       0.0270
     61 H25        45.6798   15.9779  114.5523 H           1 LSW       0.0429
     62 H26        45.9204   17.1862  113.2949 H           1 LSW       0.0429
     63 H27        42.5504   12.0950  112.4549 H           1 LSW       0.0346
     64 H28        43.4289   12.8588  113.7521 H           1 LSW       0.0346
     65 H29        42.8968   15.8803  106.8062 H           1 LSW       0.0390
     66 H30        43.8480   14.5672  107.4341 H           1 LSW       0.0390
     67 H31        43.6440   15.9085  110.9653 H           1 LSW       0.1878
     68 H32        44.6456   12.6482  111.5942 H           1 LSW       0.1099
     69 H33        44.2574   16.3970  108.7664 H           1 LSW       0.0741
     70 H34        38.6813   13.5966  107.1265 H           1 LSW       0.2216
@<TRIPOS>BOND
     1     1     3  ar
     2     4     1   1
     3     1    35  ar
     4     2     4   1
     5    33     2   1
     6     4     5   1
     7     5    23   1
     8    20     6   1
     9    27     7  ar
    10    28     8   2
    11    27     9  ar
    12    11    10  ar
    13    12    10  ar
    14    15    11  ar
    15    16    12  ar
    16    14    13  ar
    17    13    17  ar
    18    18    14  ar
    19    29    15  ar
    20    29    16  ar
    21    17    31  ar
    22    32    18  ar
    23    30    19   2
    24    19    36   1
    25    21    20   1
    26    22    21   1
    27    24    22   1
    28    23    29   1
    29    33    24   1
    30    30    25   1
    31    25    34   1
    32    26    28  am
    33    34    26   1
    34    34    27   1
    35    28    33   1
    36    30    32   1
    37    31    32  ar
    38    31    36   1
    39     2    37   1
    40     2    38   1
    41     4    39   1
    42     5    40   1
    43     5    41   1
    44     6    42   1
    45     6    43   1
    46     6    44   1
    47    10    45   1
    48    11    46   1
    49    12    47   1
    50    13    48   1
    51    14    49   1
    52    15    50   1
    53    16    51   1
    54    17    52   1
    55    18    53   1
    56    19    54   1
    57    20    55   1
    58    20    56   1
    59    21    57   1
    60    21    58   1
    61    22    59   1
    62    22    60   1
    63    23    61   1
    64    23    62   1
    65    24    63   1
    66    24    64   1
    67    25    65   1
    68    25    66   1
    69    26    67   1
    70    33    68   1
    71    34    69   1
    72    36    70   1
@<TRIPOS>SUBSTRUCTURE
     1  LSW      1

