@<TRIPOS>MOLECULE
3l3n_ligand_067
    70    72
SMALL
GAST_HUCK
****
This file was generated by PARSER (from files_GN.cpp)

@<TRIPOS>ATOM
      1 C          43.7176   13.1500  110.9764 C.2         1 LSW       0.0847
      2 N          43.8535   15.4566  109.9717 N.4         1 LSW       0.2599
      3 O          43.9495   11.8679  110.6120 O.co2       1 LSW      -0.5643
      4 CA         44.5804   14.2441  110.4697 C.3         1 LSW       0.0340
      5 CB         45.6648   14.6503  111.5155 C.3         1 LSW       0.0122
      6 NAA        42.2562   19.7805  104.5149 N.4         1 LSW       0.2185
      7 OAC        43.6477   11.2143  107.8789 O.co2       1 LSW      -0.5665
      8 OAD        43.4345   14.0717  107.4339 O.2         1 LSW      -0.3908
      9 OAF        42.5139   10.7318  105.9141 O.co2       1 LSW      -0.5665
     10 CAG        47.5190   17.2008  115.7874 C.ar        1 LSW      -0.0687
     11 CAH        46.1844   16.8596  116.0650 C.ar        1 LSW      -0.0686
     12 CAI        48.1113   16.7742  114.5873 C.ar        1 LSW      -0.0686
     13 CAJ        37.7768    7.8611  108.7165 C.ar        1 LSW      -0.0768
     14 CAK        39.1402    7.9931  108.3715 C.ar        1 LSW      -0.0792
     15 CAL        45.4358   16.1209  115.1292 C.ar        1 LSW      -0.0603
     16 CAM        47.3674   16.0213  113.6567 C.ar        1 LSW      -0.0603
     17 CAN        36.8801    8.9307  108.5129 C.ar        1 LSW      -0.0443
     18 CAO        39.6211    9.1979  107.8123 C.ar        1 LSW      -0.0747
     19 CAP        37.6287   12.1556  107.1836 C.2         1 LSW       0.0166
     20 CAQ        42.6807   18.4960  105.0733 C.3         1 LSW      -0.0354
     21 CAR        42.2026   18.3196  106.5355 C.3         1 LSW      -0.0123
     22 CAS        42.8365   17.0565  107.1946 C.3         1 LSW      -0.0410
     23 CAT        45.1288   14.9866  112.9389 C.3         1 LSW      -0.0125
     24 CAU        42.1578   16.6721  108.5429 C.3         1 LSW       0.0081
     25 CAW        40.1466   12.2295  106.6929 C.3         1 LSW      -0.0013
     26 NAX        41.5743   13.2902  108.3926 N.am        1 LSW      -0.2657
     27 CBB        42.5549   11.3965  107.0978 C.2         1 LSW       0.0613
     28 CBC        42.5492   14.1891  108.2743 C.2         1 LSW       0.2263
     29 CBD        46.0073   15.7090  113.9015 C.ar        1 LSW      -0.0427
     30 CBE        38.8973   11.5734  107.1480 C.2         1 LSW      -0.0424
     31 CBF        37.3728   10.1241  107.9554 C.ar        1 LSW       0.0603
     32 CBG        38.7233   10.2673  107.6176 C.ar        1 LSW      -0.0214
     33 CBI        42.5780   15.3211  109.2055 C.3         1 LSW       0.0683
     34 CBJ        41.3513   12.0514  107.6863 C.3         1 LSW       0.0987
     35 OXT        42.7301   13.3858  111.8707 O.co2       1 LSW      -0.5643
     36 NXZ        36.7400   11.2720  107.6717 N.pl3       1 LSW      -0.2891
     37 H1         44.5061   15.9827  109.3875 H           1 LSW       0.2052
     38 H2         43.6409   16.0419  110.7907 H           1 LSW       0.2052
     39 H3         45.1269   13.8496  109.6044 H           1 LSW       0.1027
     40 H4         46.1978   15.5229  111.1201 H           1 LSW       0.0361
     41 H5         46.3908   13.8361  111.6068 H           1 LSW       0.0361
     42 H6         42.4943   19.8073  103.5210 H           1 LSW       0.1994
     43 H7         42.7385   20.5386  104.9981 H           1 LSW       0.1994
     44 H8         41.2457   19.8863  104.6264 H           1 LSW       0.1994
     45 H9         48.0562   17.7574  116.4618 H           1 LSW       0.0559
     46 H10        45.7548   17.1546  116.9452 H           1 LSW       0.0599
     47 H11        49.0803   17.0248  114.3863 H           1 LSW       0.0599
     48 H12        37.4305    6.9852  109.1153 H           1 LSW       0.0530
     49 H13        39.7787    7.2109  108.5288 H           1 LSW       0.0510
     50 H14        44.4617   15.8945  115.3490 H           1 LSW       0.0557
     51 H15        47.8296   15.7139  112.7970 H           1 LSW       0.0557
     52 H16        35.8966    8.8465  108.7776 H           1 LSW       0.0541
     53 H17        40.6089    9.2936  107.5683 H           1 LSW       0.0540
     54 H18        37.3975   13.1132  106.9116 H           1 LSW       0.0795
     55 H19        43.7694   18.4379  105.0166 H           1 LSW       0.0813
     56 H20        42.2572   17.7010  104.4543 H           1 LSW       0.0813
     57 H21        41.1093   18.2254  106.5263 H           1 LSW       0.0317
     58 H22        42.4678   19.2088  107.1192 H           1 LSW       0.0317
     59 H23        43.9075   17.2331  107.3676 H           1 LSW       0.0270
     60 H24        42.7252   16.2184  106.4990 H           1 LSW       0.0270
     61 H25        44.8374   14.0501  113.4227 H           1 LSW       0.0429
     62 H26        44.2233   15.5822  112.8112 H           1 LSW       0.0429
     63 H27        41.0742   16.6335  108.3823 H           1 LSW       0.0346
     64 H28        42.3417   17.4771  109.2635 H           1 LSW       0.0346
     65 H29        39.9443   13.2959  106.5317 H           1 LSW       0.0390
     66 H30        40.3616   11.8181  105.7040 H           1 LSW       0.0390
     67 H31        40.8833   13.5019  109.0471 H           1 LSW       0.1878
     68 H32        41.8213   15.1461  109.9867 H           1 LSW       0.1099
     69 H33        41.0615   11.3661  108.4916 H           1 LSW       0.0741
     70 H34        35.7968   11.4540  107.8129 H           1 LSW       0.2216
@<TRIPOS>BOND
     1     1     3  ar
     2     4     1   1
     3     1    35  ar
     4     2     4   1
     5    33     2   1
     6     4     5   1
     7     5    23   1
     8    20     6   1
     9    27     7  ar
    10    28     8   2
    11    27     9  ar
    12    11    10  ar
    13    12    10  ar
    14    15    11  ar
    15    16    12  ar
    16    14    13  ar
    17    13    17  ar
    18    18    14  ar
    19    29    15  ar
    20    29    16  ar
    21    17    31  ar
    22    32    18  ar
    23    30    19   2
    24    19    36   1
    25    21    20   1
    26    22    21   1
    27    24    22   1
    28    23    29   1
    29    33    24   1
    30    30    25   1
    31    25    34   1
    32    26    28  am
    33    34    26   1
    34    34    27   1
    35    28    33   1
    36    30    32   1
    37    31    32  ar
    38    31    36   1
    39     2    37   1
    40     2    38   1
    41     4    39   1
    42     5    40   1
    43     5    41   1
    44     6    42   1
    45     6    43   1
    46     6    44   1
    47    10    45   1
    48    11    46   1
    49    12    47   1
    50    13    48   1
    51    14    49   1
    52    15    50   1
    53    16    51   1
    54    17    52   1
    55    18    53   1
    56    19    54   1
    57    20    55   1
    58    20    56   1
    59    21    57   1
    60    21    58   1
    61    22    59   1
    62    22    60   1
    63    23    61   1
    64    23    62   1
    65    24    63   1
    66    24    64   1
    67    25    65   1
    68    25    66   1
    69    26    67   1
    70    33    68   1
    71    34    69   1
    72    36    70   1
@<TRIPOS>SUBSTRUCTURE
     1  LSW      1

