@<TRIPOS>MOLECULE
3l3n_ligand_095
    70    72
SMALL
GAST_HUCK
****
This file was generated by PARSER (from files_GN.cpp)

@<TRIPOS>ATOM
      1 C          43.9754   13.3339  108.8862 C.2         1 LSW       0.0847
      2 N          44.1495   15.6253  110.0055 N.4         1 LSW       0.2599
      3 O          45.0325   13.0203  108.0861 O.co2       1 LSW      -0.5643
      4 CA         44.1927   14.1262  110.1226 C.3         1 LSW       0.0340
      5 CB         43.3742   13.6369  111.3578 C.3         1 LSW       0.0122
      6 NAA        42.4277   19.7188  104.3634 N.4         1 LSW       0.2185
      7 OAC        38.2196   19.1733  108.1302 O.co2       1 LSW      -0.5665
      8 OAD        41.4976   15.2307  108.9564 O.2         1 LSW      -0.3908
      9 OAF        39.9545   18.5553  106.7402 O.co2       1 LSW      -0.5665
     10 CAG        40.2583   14.9277  115.3014 C.ar        1 LSW      -0.0687
     11 CAH        41.6131   15.1804  115.0375 C.ar        1 LSW      -0.0686
     12 CAI        39.4328   14.3965  114.2914 C.ar        1 LSW      -0.0686
     13 CAJ        41.0270   19.5867  115.0702 C.ar        1 LSW      -0.0768
     14 CAK        40.5986   18.2714  114.7930 C.ar        1 LSW      -0.0792
     15 CAL        42.1423   14.8928  113.7633 C.ar        1 LSW      -0.0603
     16 CAM        39.9644   14.0948  113.0319 C.ar        1 LSW      -0.0603
     17 CAN        41.0184   20.5644  114.0553 C.ar        1 LSW      -0.0443
     18 CAO        40.1607   17.9178  113.5009 C.ar        1 LSW      -0.0747
     19 CAP        40.0381   20.1555  110.6563 C.2         1 LSW       0.0166
     20 CAQ        43.3164   18.5817  104.6224 C.3         1 LSW      -0.0354
     21 CAR        43.1281   18.0230  106.0548 C.3         1 LSW      -0.0123
     22 CAS        44.3652   17.2289  106.5428 C.3         1 LSW      -0.0410
     23 CAT        41.8886   14.1006  111.3873 C.3         1 LSW      -0.0125
     24 CAU        44.0578   16.0423  107.4944 C.3         1 LSW       0.0081
     25 CAW        39.2816   17.6982  110.3869 C.3         1 LSW      -0.0013
     26 NAX        41.2644   17.4291  108.9588 N.am        1 LSW      -0.2657
     27 CBB        39.3670   18.4758  107.9553 C.2         1 LSW       0.0613
     28 CBC        42.0227   16.3282  108.9607 C.2         1 LSW       0.2263
     29 CBD        41.3342   14.3164  112.7507 C.ar        1 LSW      -0.0427
     30 CBE        39.8228   18.8597  111.1361 C.2         1 LSW      -0.0424
     31 CBF        40.6057   20.1963  112.7642 C.ar        1 LSW       0.0603
     32 CBG        40.1813   18.8941  112.4848 C.ar        1 LSW      -0.0214
     33 CBI        43.4810   16.3960  108.9049 C.3         1 LSW       0.0683
     34 CBJ        39.8258   17.4759  108.9419 C.3         1 LSW       0.0987
     35 OXT        42.8151   12.6760  108.6247 O.co2       1 LSW      -0.5643
     36 NXZ        40.5226   20.9236  111.6430 N.pl3       1 LSW      -0.2891
     37 H1         45.1257   15.9321  109.9912 H           1 LSW       0.2052
     38 H2         43.7571   15.9809  110.8838 H           1 LSW       0.2052
     39 H3         45.2385   13.9172  110.3869 H           1 LSW       0.1027
     40 H4         43.9019   14.0188  112.2347 H           1 LSW       0.0361
     41 H5         43.4191   12.5434  111.4129 H           1 LSW       0.0361
     42 H6         42.3635   19.8405  103.3488 H           1 LSW       0.1994
     43 H7         42.8236   20.5631  104.7873 H           1 LSW       0.1994
     44 H8         41.4957   19.5373  104.7437 H           1 LSW       0.1994
     45 H9         39.8742   15.1575  116.2241 H           1 LSW       0.0559
     46 H10        42.2171   15.5789  115.7562 H           1 LSW       0.0599
     47 H11        38.4357   14.2365  114.4774 H           1 LSW       0.0599
     48 H12        41.3408   19.8378  116.0095 H           1 LSW       0.0530
     49 H13        40.5988   17.5721  115.5386 H           1 LSW       0.0510
     50 H14        43.1152   15.1131  113.5864 H           1 LSW       0.0557
     51 H15        39.3361   13.7362  112.3023 H           1 LSW       0.0557
     52 H16        41.3107   21.5207  114.2568 H           1 LSW       0.0541
     53 H17        39.8325   16.9713  113.3156 H           1 LSW       0.0540
     54 H18        39.8798   20.4893  109.7062 H           1 LSW       0.0795
     55 H19        44.3433   18.9140  104.4696 H           1 LSW       0.0813
     56 H20        43.0850   17.7946  103.9028 H           1 LSW       0.0813
     57 H21        42.2445   17.3777  106.0553 H           1 LSW       0.0317
     58 H22        42.9523   18.8574  106.7453 H           1 LSW       0.0317
     59 H23        45.0597   17.9142  107.0390 H           1 LSW       0.0270
     60 H24        44.8886   16.8177  105.6733 H           1 LSW       0.0270
     61 H25        41.2823   13.3727  110.8495 H           1 LSW       0.0429
     62 H26        41.7804   15.0504  110.8472 H           1 LSW       0.0429
     63 H27        44.9985   15.5073  107.6292 H           1 LSW       0.0346
     64 H28        43.3835   15.3513  106.9669 H           1 LSW       0.0346
     65 H29        38.1938   17.7904  110.3603 H           1 LSW       0.0390
     66 H30        39.4994   16.7857  110.9491 H           1 LSW       0.0390
     67 H31        41.7283   18.2864  108.9615 H           1 LSW       0.1878
     68 H32        43.7809   17.4257  109.1128 H           1 LSW       0.1099
     69 H33        39.4039   16.5248  108.6052 H           1 LSW       0.0741
     70 H34        40.7664   21.8570  111.5501 H           1 LSW       0.2216
@<TRIPOS>BOND
     1     1     3  ar
     2     4     1   1
     3     1    35  ar
     4     2     4   1
     5    33     2   1
     6     4     5   1
     7     5    23   1
     8    20     6   1
     9    27     7  ar
    10    28     8   2
    11    27     9  ar
    12    11    10  ar
    13    12    10  ar
    14    15    11  ar
    15    16    12  ar
    16    14    13  ar
    17    13    17  ar
    18    18    14  ar
    19    29    15  ar
    20    29    16  ar
    21    17    31  ar
    22    32    18  ar
    23    30    19   2
    24    19    36   1
    25    21    20   1
    26    22    21   1
    27    24    22   1
    28    23    29   1
    29    33    24   1
    30    30    25   1
    31    25    34   1
    32    26    28  am
    33    34    26   1
    34    34    27   1
    35    28    33   1
    36    30    32   1
    37    31    32  ar
    38    31    36   1
    39     2    37   1
    40     2    38   1
    41     4    39   1
    42     5    40   1
    43     5    41   1
    44     6    42   1
    45     6    43   1
    46     6    44   1
    47    10    45   1
    48    11    46   1
    49    12    47   1
    50    13    48   1
    51    14    49   1
    52    15    50   1
    53    16    51   1
    54    17    52   1
    55    18    53   1
    56    19    54   1
    57    20    55   1
    58    20    56   1
    59    21    57   1
    60    21    58   1
    61    22    59   1
    62    22    60   1
    63    23    61   1
    64    23    62   1
    65    24    63   1
    66    24    64   1
    67    25    65   1
    68    25    66   1
    69    26    67   1
    70    33    68   1
    71    34    69   1
    72    36    70   1
@<TRIPOS>SUBSTRUCTURE
     1  LSW      1

