@<TRIPOS>MOLECULE
3l3n_ligand_030
    70    72
SMALL
GAST_HUCK
****
This file was generated by PARSER (from files_GN.cpp)

@<TRIPOS>ATOM
      1 C          39.7499   12.0009  105.6402 C.2         1 LSW       0.0847
      2 N          40.5041   13.6539  107.1651 N.4         1 LSW       0.2599
      3 O          39.9199   12.2291  104.3117 O.co2       1 LSW      -0.5643
      4 CA         40.8435   12.3220  106.5891 C.3         1 LSW       0.0340
      5 CB         41.0917   11.2377  107.6873 C.3         1 LSW       0.0122
      6 NAA        44.1044   19.4579  105.4105 N.4         1 LSW       0.2185
      7 OAC        44.1808   14.3904  111.9037 O.co2       1 LSW      -0.5665
      8 OAD        39.9715   14.2700  109.8468 O.2         1 LSW      -0.3908
      9 OAF        43.1176   13.7409  113.8527 O.co2       1 LSW      -0.5665
     10 CAG        36.9796    8.4180  108.9251 C.ar        1 LSW      -0.0687
     11 CAH        37.9367    9.0068  109.7663 C.ar        1 LSW      -0.0686
     12 CAI        37.2638    8.2472  107.5571 C.ar        1 LSW      -0.0686
     13 CAJ        42.5975    6.8030  112.6724 C.ar        1 LSW      -0.0768
     14 CAK        41.4710    7.4990  113.1675 C.ar        1 LSW      -0.0792
     15 CAL        39.1736    9.4204  109.2451 C.ar        1 LSW      -0.0603
     16 CAM        38.5050    8.6695  107.0298 C.ar        1 LSW      -0.0603
     17 CAN        43.5699    7.4795  111.9034 C.ar        1 LSW      -0.0443
     18 CAO        41.3025    8.8744  112.8957 C.ar        1 LSW      -0.0747
     19 CAP        43.6035   10.9198  110.9890 C.2         1 LSW       0.0166
     20 CAQ        43.3956   18.1862  105.2011 C.3         1 LSW      -0.0354
     21 CAR        42.5111   17.7985  106.4148 C.3         1 LSW      -0.0123
     22 CAS        42.3590   16.2635  106.5828 C.3         1 LSW      -0.0410
     23 CAT        40.7863    9.7454  107.3387 C.3         1 LSW      -0.0125
     24 CAU        41.4950   15.8703  107.8128 C.3         1 LSW       0.0081
     25 CAW        41.4614   11.9691  112.0486 C.3         1 LSW      -0.0013
     26 NAX        42.0545   13.6664  110.3335 N.am        1 LSW      -0.2657
     27 CBB        43.1013   13.8366  112.5023 C.2         1 LSW       0.0613
     28 CBC        41.1220   14.0743  109.4771 C.2         1 LSW       0.2263
     29 CBD        39.4698    9.2766  107.8694 C.ar        1 LSW      -0.0427
     30 CBE        42.4103   10.8745  111.7249 C.2         1 LSW      -0.0424
     31 CBF        43.3876    8.8483  111.6429 C.ar        1 LSW       0.0603
     32 CBG        42.2755    9.5458  112.1268 C.ar        1 LSW      -0.0214
     33 CBI        41.4695   14.3330  108.0815 C.3         1 LSW       0.0683
     34 CBJ        41.8894   13.4369  111.7445 C.3         1 LSW       0.0987
     35 OXT        38.5140   11.6644  106.0846 O.co2       1 LSW      -0.5643
     36 NXZ        44.1654    9.7002  110.9639 N.pl3       1 LSW      -0.2891
     37 H1         39.6174   13.5562  107.6643 H           1 LSW       0.2052
     38 H2         40.3194   14.2754  106.3767 H           1 LSW       0.2052
     39 H3         41.7637   12.4287  106.0034 H           1 LSW       0.1027
     40 H4         40.5330   11.5170  108.5819 H           1 LSW       0.0361
     41 H5         42.1504   11.2999  107.9566 H           1 LSW       0.0361
     42 H6         44.6755   19.6563  104.5888 H           1 LSW       0.1994
     43 H7         44.7136   19.3714  106.2238 H           1 LSW       0.1994
     44 H8         43.4545   20.2294  105.5619 H           1 LSW       0.1994
     45 H9         36.0821    8.0991  109.3053 H           1 LSW       0.0559
     46 H10        37.7374    9.1273  110.7631 H           1 LSW       0.0599
     47 H11        36.5740    7.7989  106.9445 H           1 LSW       0.0599
     48 H12        42.7149    5.8052  112.8801 H           1 LSW       0.0530
     49 H13        40.7827    7.0026  113.7356 H           1 LSW       0.0510
     50 H14        39.8582    9.8323  109.8827 H           1 LSW       0.0557
     51 H15        38.6881    8.5349  106.0284 H           1 LSW       0.0557
     52 H16        44.3944    6.9838  111.5483 H           1 LSW       0.0541
     53 H17        40.4888    9.3740  113.2570 H           1 LSW       0.0540
     54 H18        44.0100   11.7397  110.5463 H           1 LSW       0.0795
     55 H19        44.1608   17.4218  105.0400 H           1 LSW       0.0813
     56 H20        42.7833   18.2584  104.2966 H           1 LSW       0.0813
     57 H21        41.5223   18.2524  106.2956 H           1 LSW       0.0317
     58 H22        42.9683   18.2059  107.3198 H           1 LSW       0.0317
     59 H23        43.3524   15.8335  106.7091 H           1 LSW       0.0270
     60 H24        41.9172   15.8429  105.6793 H           1 LSW       0.0270
     61 H25        41.5614    9.1105  107.7783 H           1 LSW       0.0429
     62 H26        40.8661    9.6012  106.2587 H           1 LSW       0.0429
     63 H27        40.4714   16.2370  107.6729 H           1 LSW       0.0346
     64 H28        41.9084   16.3753  108.6941 H           1 LSW       0.0346
     65 H29        41.2449   11.9093  113.1174 H           1 LSW       0.0390
     66 H30        40.5263   11.7655  111.5235 H           1 LSW       0.0390
     67 H31        42.9489   13.5634  109.9783 H           1 LSW       0.1878
     68 H32        42.4786   13.9539  107.8824 H           1 LSW       0.1099
     69 H33        41.0995   14.1016  112.1198 H           1 LSW       0.0741
     70 H34        45.0016    9.4716  110.5302 H           1 LSW       0.2216
@<TRIPOS>BOND
     1     1     3  ar
     2     4     1   1
     3     1    35  ar
     4     2     4   1
     5    33     2   1
     6     4     5   1
     7     5    23   1
     8    20     6   1
     9    27     7  ar
    10    28     8   2
    11    27     9  ar
    12    11    10  ar
    13    12    10  ar
    14    15    11  ar
    15    16    12  ar
    16    14    13  ar
    17    13    17  ar
    18    18    14  ar
    19    29    15  ar
    20    29    16  ar
    21    17    31  ar
    22    32    18  ar
    23    30    19   2
    24    19    36   1
    25    21    20   1
    26    22    21   1
    27    24    22   1
    28    23    29   1
    29    33    24   1
    30    30    25   1
    31    25    34   1
    32    26    28  am
    33    34    26   1
    34    34    27   1
    35    28    33   1
    36    30    32   1
    37    31    32  ar
    38    31    36   1
    39     2    37   1
    40     2    38   1
    41     4    39   1
    42     5    40   1
    43     5    41   1
    44     6    42   1
    45     6    43   1
    46     6    44   1
    47    10    45   1
    48    11    46   1
    49    12    47   1
    50    13    48   1
    51    14    49   1
    52    15    50   1
    53    16    51   1
    54    17    52   1
    55    18    53   1
    56    19    54   1
    57    20    55   1
    58    20    56   1
    59    21    57   1
    60    21    58   1
    61    22    59   1
    62    22    60   1
    63    23    61   1
    64    23    62   1
    65    24    63   1
    66    24    64   1
    67    25    65   1
    68    25    66   1
    69    26    67   1
    70    33    68   1
    71    34    69   1
    72    36    70   1
@<TRIPOS>SUBSTRUCTURE
     1  LSW      1

