@<TRIPOS>MOLECULE
3l3n_ligand_053
    70    72
SMALL
GAST_HUCK
****
This file was generated by PARSER (from files_GN.cpp)

@<TRIPOS>ATOM
      1 C          44.6361   10.1196  109.5127 C.2         1 LSW       0.0847
      2 N          43.1029   11.9028  108.5533 N.4         1 LSW       0.2599
      3 O          45.5212    9.2958  108.8953 O.co2       1 LSW      -0.5643
      4 CA         44.4679   11.5227  109.0498 C.3         1 LSW       0.0340
      5 CB         45.1138   12.5575  110.0320 C.3         1 LSW       0.0122
      6 NAA        40.0126   16.6090  110.7278 N.4         1 LSW       0.2185
      7 OAC        40.9898    6.4200  109.6980 O.co2       1 LSW      -0.5665
      8 OAD        41.9547    9.4597  108.4681 O.2         1 LSW      -0.3908
      9 OAF        41.1554    7.5376  111.7202 O.co2       1 LSW      -0.5665
     10 CAG        45.9856   16.5483  113.2208 C.ar        1 LSW      -0.0687
     11 CAH        45.2445   15.5643  113.8978 C.ar        1 LSW      -0.0686
     12 CAI        46.0836   16.5099  111.8198 C.ar        1 LSW      -0.0686
     13 CAJ        39.3687   12.4097  105.2741 C.ar        1 LSW      -0.0768
     14 CAK        40.2940   11.3495  105.3969 C.ar        1 LSW      -0.0792
     15 CAL        44.6366   14.5198  113.1738 C.ar        1 LSW      -0.0603
     16 CAM        45.4867   15.4580  111.0995 C.ar        1 LSW      -0.0603
     17 CAN        38.1817   12.4112  106.0373 C.ar        1 LSW      -0.0443
     18 CAO        40.0511   10.2806  106.2867 C.ar        1 LSW      -0.0747
     19 CAP        37.1448    9.9934  108.4380 C.2         1 LSW       0.0166
     20 CAQ        39.8325   16.3376  109.2920 C.3         1 LSW      -0.0354
     21 CAR        39.4975   14.8468  109.0184 C.3         1 LSW      -0.0123
     22 CAS        40.4642   13.8614  109.7394 C.3         1 LSW      -0.0410
     23 CAT        44.1521   13.3115  110.9992 C.3         1 LSW      -0.0125
     24 CAU        40.6772   12.5506  108.9251 C.3         1 LSW       0.0081
     25 CAW        39.0217    8.2504  108.6371 C.3         1 LSW      -0.0013
     26 NAX        40.4150    9.8171  110.0272 N.am        1 LSW      -0.2657
     27 CBB        40.6352    7.4715  110.4730 C.2         1 LSW       0.0613
     28 CBC        41.4315   10.2261  109.2702 C.2         1 LSW       0.2263
     29 CBD        44.7892   14.4210  111.7688 C.ar        1 LSW      -0.0427
     30 CBE        38.3684    9.4438  108.0416 C.2         1 LSW      -0.0424
     31 CBF        37.9460   11.3372  106.9143 C.ar        1 LSW       0.0603
     32 CBG        38.8638   10.2929  107.0504 C.ar        1 LSW      -0.0214
     33 CBI        41.8680   11.6231  109.3539 C.3         1 LSW       0.0683
     34 CBJ        39.7318    8.5446  109.9984 C.3         1 LSW       0.0987
     35 OXT        43.8887    9.6125  110.5227 O.co2       1 LSW      -0.5643
     36 NXZ        36.9260   11.1304  107.7579 N.pl3       1 LSW      -0.2891
     37 H1         42.9775   11.4474  107.6467 H           1 LSW       0.2052
     38 H2         43.1434   12.9100  108.3807 H           1 LSW       0.2052
     39 H3         45.0903   11.5985  108.1530 H           1 LSW       0.1027
     40 H4         45.6225   13.3076  109.4134 H           1 LSW       0.0361
     41 H5         45.8923   12.0601  110.6269 H           1 LSW       0.0361
     42 H6         40.1607   17.6179  110.8633 H           1 LSW       0.1994
     43 H7         40.8277   16.0952  111.0811 H           1 LSW       0.1994
     44 H8         39.1698   16.3183  111.2394 H           1 LSW       0.1994
     45 H9         46.4265   17.3061  113.7453 H           1 LSW       0.0559
     46 H10        45.1336   15.6134  114.9138 H           1 LSW       0.0599
     47 H11        46.5859   17.2454  111.3159 H           1 LSW       0.0599
     48 H12        39.5604   13.1806  104.6288 H           1 LSW       0.0530
     49 H13        41.1478   11.3554  104.8354 H           1 LSW       0.0510
     50 H14        44.0777   13.8291  113.6825 H           1 LSW       0.0557
     51 H15        45.5719   15.4556  110.0809 H           1 LSW       0.0557
     52 H16        37.5127   13.1789  105.9624 H           1 LSW       0.0541
     53 H17        40.7275    9.5268  106.3735 H           1 LSW       0.0540
     54 H18        36.5387    9.6201  109.1665 H           1 LSW       0.0795
     55 H19        40.7387   16.6309  108.7512 H           1 LSW       0.0813
     56 H20        39.0010   16.9571  108.9352 H           1 LSW       0.0813
     57 H21        39.5521   14.6653  107.9378 H           1 LSW       0.0317
     58 H22        38.4641   14.6624  109.3457 H           1 LSW       0.0317
     59 H23        40.0286   13.6006  110.7126 H           1 LSW       0.0270
     60 H24        41.4319   14.3513  109.8869 H           1 LSW       0.0270
     61 H25        43.7024   12.5839  111.6845 H           1 LSW       0.0429
     62 H26        43.3551   13.7621  110.4089 H           1 LSW       0.0429
     63 H27        40.7753   12.8185  107.8598 H           1 LSW       0.0346
     64 H28        39.7504   11.9623  109.0361 H           1 LSW       0.0346
     65 H29        39.7496    7.8484  107.9296 H           1 LSW       0.0390
     66 H30        38.2613    7.4783  108.7887 H           1 LSW       0.0390
     67 H31        40.0482   10.4708  110.6493 H           1 LSW       0.1878
     68 H32        42.0821   11.8421  110.4083 H           1 LSW       0.1099
     69 H33        38.9416    8.6213  110.7495 H           1 LSW       0.0741
     70 H34        36.1758   11.7317  107.8712 H           1 LSW       0.2216
@<TRIPOS>BOND
     1     1     3  ar
     2     4     1   1
     3     1    35  ar
     4     2     4   1
     5    33     2   1
     6     4     5   1
     7     5    23   1
     8    20     6   1
     9    27     7  ar
    10    28     8   2
    11    27     9  ar
    12    11    10  ar
    13    12    10  ar
    14    15    11  ar
    15    16    12  ar
    16    14    13  ar
    17    13    17  ar
    18    18    14  ar
    19    29    15  ar
    20    29    16  ar
    21    17    31  ar
    22    32    18  ar
    23    30    19   2
    24    19    36   1
    25    21    20   1
    26    22    21   1
    27    24    22   1
    28    23    29   1
    29    33    24   1
    30    30    25   1
    31    25    34   1
    32    26    28  am
    33    34    26   1
    34    34    27   1
    35    28    33   1
    36    30    32   1
    37    31    32  ar
    38    31    36   1
    39     2    37   1
    40     2    38   1
    41     4    39   1
    42     5    40   1
    43     5    41   1
    44     6    42   1
    45     6    43   1
    46     6    44   1
    47    10    45   1
    48    11    46   1
    49    12    47   1
    50    13    48   1
    51    14    49   1
    52    15    50   1
    53    16    51   1
    54    17    52   1
    55    18    53   1
    56    19    54   1
    57    20    55   1
    58    20    56   1
    59    21    57   1
    60    21    58   1
    61    22    59   1
    62    22    60   1
    63    23    61   1
    64    23    62   1
    65    24    63   1
    66    24    64   1
    67    25    65   1
    68    25    66   1
    69    26    67   1
    70    33    68   1
    71    34    69   1
    72    36    70   1
@<TRIPOS>SUBSTRUCTURE
     1  LSW      1

