@<TRIPOS>MOLECULE
3l3n_ligand_043
    70    72
SMALL
GAST_HUCK
****
This file was generated by PARSER (from files_GN.cpp)

@<TRIPOS>ATOM
      1 C          42.7793   13.0043  112.7870 C.2         1 LSW       0.0847
      2 N          40.7248   13.1887  111.4327 N.4         1 LSW       0.2599
      3 O          43.3013   13.4725  113.9442 O.co2       1 LSW      -0.5643
      4 CA         41.3362   12.6840  112.6912 C.3         1 LSW       0.0340
      5 CB         41.0703   11.1505  112.8897 C.3         1 LSW       0.0122
      6 NAA        41.1149   15.5502  115.4174 N.4         1 LSW       0.2185
      7 OAC        44.7595   13.6544  107.0562 O.co2       1 LSW      -0.5665
      8 OAD        40.4447   15.2736  108.8709 O.2         1 LSW      -0.3908
      9 OAF        44.8683   13.3327  109.3444 O.co2       1 LSW      -0.5665
     10 CAG        44.2448    7.4494  111.0100 C.ar        1 LSW      -0.0687
     11 CAH        43.1340    7.0729  111.7873 C.ar        1 LSW      -0.0686
     12 CAI        44.3168    8.7549  110.4788 C.ar        1 LSW      -0.0686
     13 CAJ        42.5913   19.8495  104.5857 C.ar        1 LSW      -0.0768
     14 CAK        43.7483   19.0426  104.6649 C.ar        1 LSW      -0.0792
     15 CAL        42.0939    7.9851  112.0182 C.ar        1 LSW      -0.0603
     16 CAM        43.2656    9.6630  110.7039 C.ar        1 LSW      -0.0603
     17 CAN        41.6182   19.8070  105.6031 C.ar        1 LSW      -0.0443
     18 CAO        43.9310   18.1632  105.7514 C.ar        1 LSW      -0.0747
     19 CAP        41.6995   17.8567  108.5837 C.2         1 LSW       0.0166
     20 CAQ        40.1811   16.6787  115.4469 C.3         1 LSW      -0.0354
     21 CAR        39.9601   17.3211  114.0564 C.3         1 LSW      -0.0123
     22 CAS        39.6381   16.3194  112.9060 C.3         1 LSW      -0.0410
     23 CAT        40.9862   10.2158  111.6400 C.3         1 LSW      -0.0125
     24 CAU        40.8793   15.7347  112.1614 C.3         1 LSW       0.0081
     25 CAW        43.8187   16.3910  108.4749 C.3         1 LSW      -0.0013
     26 NAX        42.4485   14.7176  109.6441 N.am        1 LSW      -0.2657
     27 CBB        44.2610   13.9162  108.2857 C.2         1 LSW       0.0613
     28 CBC        41.1406   14.8768  109.8018 C.2         1 LSW       0.2263
     29 CBD        42.1405    9.2928  111.4719 C.ar        1 LSW      -0.0427
     30 CBE        42.8763   17.4197  107.9677 C.2         1 LSW      -0.0424
     31 CBF        41.8307   18.9526  106.6981 C.ar        1 LSW       0.0603
     32 CBG        42.9621   18.1366  106.7759 C.ar        1 LSW      -0.0214
     33 CBI        40.5099   14.6316  111.0965 C.3         1 LSW       0.0683
     34 CBJ        43.2130   14.9511  108.4462 C.3         1 LSW       0.0987
     35 OXT        43.5689   13.0391  111.6897 O.co2       1 LSW      -0.5643
     36 NXZ        41.0903   18.7637  107.7994 N.pl3       1 LSW      -0.2891
     37 H1         39.7950   12.7699  111.3986 H           1 LSW       0.2052
     38 H2         41.2594   12.7690  110.6676 H           1 LSW       0.2052
     39 H3         40.8337   13.1817  113.5203 H           1 LSW       0.1027
     40 H4         40.0990   11.0723  113.3854 H           1 LSW       0.0361
     41 H5         41.7960   10.7386  113.6028 H           1 LSW       0.0361
     42 H6         41.2776   15.2033  116.3639 H           1 LSW       0.1994
     43 H7         41.9978   15.8715  115.0232 H           1 LSW       0.1994
     44 H8         40.7289   14.8006  114.8446 H           1 LSW       0.1994
     45 H9         44.9934    6.7812  110.8245 H           1 LSW       0.0559
     46 H10        43.0748    6.1245  112.1717 H           1 LSW       0.0599
     47 H11        45.1209    9.0259  109.9120 H           1 LSW       0.0599
     48 H12        42.4710   20.4766  103.7892 H           1 LSW       0.0530
     49 H13        44.4568   19.1020  103.9349 H           1 LSW       0.0510
     50 H14        41.2872    7.6808  112.5721 H           1 LSW       0.0557
     51 H15        43.3225   10.5934  110.2839 H           1 LSW       0.0557
     52 H16        40.7839   20.3971  105.5545 H           1 LSW       0.0541
     53 H17        44.7616   17.5745  105.7982 H           1 LSW       0.0540
     54 H18        41.3515   17.5568  109.4887 H           1 LSW       0.0795
     55 H19        40.5889   17.4317  116.1258 H           1 LSW       0.0813
     56 H20        39.2317   16.3292  115.8527 H           1 LSW       0.0813
     57 H21        40.8321   17.9236  113.7925 H           1 LSW       0.0317
     58 H22        39.1190   18.0094  114.1602 H           1 LSW       0.0317
     59 H23        39.0545   16.8703  112.1616 H           1 LSW       0.0270
     60 H24        39.0087   15.5032  113.2842 H           1 LSW       0.0270
     61 H25        40.8400   10.7958  110.7290 H           1 LSW       0.0429
     62 H26        40.0800    9.6065  111.7296 H           1 LSW       0.0429
     63 H27        41.6013   15.3307  112.8783 H           1 LSW       0.0346
     64 H28        41.3665   16.5862  111.6684 H           1 LSW       0.0346
     65 H29        44.1237   16.6542  109.4928 H           1 LSW       0.0390
     66 H30        44.7217   16.4242  107.8619 H           1 LSW       0.0390
     67 H31        42.9568   14.4379  110.4289 H           1 LSW       0.1878
     68 H32        39.4288   14.7041  110.9394 H           1 LSW       0.1099
     69 H33        42.5785   14.8549  107.5561 H           1 LSW       0.0741
     70 H34        40.2571   19.2159  108.0018 H           1 LSW       0.2216
@<TRIPOS>BOND
     1     1     3  ar
     2     4     1   1
     3     1    35  ar
     4     2     4   1
     5    33     2   1
     6     4     5   1
     7     5    23   1
     8    20     6   1
     9    27     7  ar
    10    28     8   2
    11    27     9  ar
    12    11    10  ar
    13    12    10  ar
    14    15    11  ar
    15    16    12  ar
    16    14    13  ar
    17    13    17  ar
    18    18    14  ar
    19    29    15  ar
    20    29    16  ar
    21    17    31  ar
    22    32    18  ar
    23    30    19   2
    24    19    36   1
    25    21    20   1
    26    22    21   1
    27    24    22   1
    28    23    29   1
    29    33    24   1
    30    30    25   1
    31    25    34   1
    32    26    28  am
    33    34    26   1
    34    34    27   1
    35    28    33   1
    36    30    32   1
    37    31    32  ar
    38    31    36   1
    39     2    37   1
    40     2    38   1
    41     4    39   1
    42     5    40   1
    43     5    41   1
    44     6    42   1
    45     6    43   1
    46     6    44   1
    47    10    45   1
    48    11    46   1
    49    12    47   1
    50    13    48   1
    51    14    49   1
    52    15    50   1
    53    16    51   1
    54    17    52   1
    55    18    53   1
    56    19    54   1
    57    20    55   1
    58    20    56   1
    59    21    57   1
    60    21    58   1
    61    22    59   1
    62    22    60   1
    63    23    61   1
    64    23    62   1
    65    24    63   1
    66    24    64   1
    67    25    65   1
    68    25    66   1
    69    26    67   1
    70    33    68   1
    71    34    69   1
    72    36    70   1
@<TRIPOS>SUBSTRUCTURE
     1  LSW      1

