@<TRIPOS>MOLECULE
3l3n_ligand_019
    70    72
SMALL
GAST_HUCK
****
This file was generated by PARSER (from files_GN.cpp)

@<TRIPOS>ATOM
      1 C          44.7088   13.4328  111.1806 C.2         1 LSW       0.0847
      2 N          44.8176   15.8716  110.4579 N.4         1 LSW       0.2599
      3 O          44.7989   12.4132  110.2883 O.co2       1 LSW      -0.5643
      4 CA         45.5264   14.6626  110.9909 C.3         1 LSW       0.0340
      5 CB         46.3681   15.0119  112.2690 C.3         1 LSW       0.0122
      6 NAA        42.8834   19.2819  104.8857 N.4         1 LSW       0.2185
      7 OAC        41.6722   12.4952  113.4956 O.co2       1 LSW      -0.5665
      8 OAD        41.7878   14.2803  109.5900 O.2         1 LSW      -0.3908
      9 OAF        40.8030   12.4444  111.3441 O.co2       1 LSW      -0.5665
     10 CAG        47.8190   16.3655  117.1076 C.ar        1 LSW      -0.0687
     11 CAH        48.1667   15.2158  116.3784 C.ar        1 LSW      -0.0686
     12 CAI        46.7520   17.1704  116.6748 C.ar        1 LSW      -0.0686
     13 CAJ        40.8982   20.3795  113.3235 C.ar        1 LSW      -0.0768
     14 CAK        40.8121   19.2918  114.2209 C.ar        1 LSW      -0.0792
     15 CAL        47.4570   14.8770  115.2121 C.ar        1 LSW      -0.0603
     16 CAM        46.0432   16.8291  115.5097 C.ar        1 LSW      -0.0603
     17 CAN        40.6357   20.1935  111.9504 C.ar        1 LSW      -0.0443
     18 CAO        40.4738   18.0045  113.7532 C.ar        1 LSW      -0.0747
     19 CAP        39.8051   17.1541  110.2930 C.2         1 LSW       0.0166
     20 CAQ        43.8999   18.3881  105.4522 C.3         1 LSW      -0.0354
     21 CAR        43.3739   17.5767  106.6682 C.3         1 LSW      -0.0123
     22 CAS        44.4672   16.6701  107.3161 C.3         1 LSW      -0.0410
     23 CAT        45.5611   15.2603  113.5814 C.3         1 LSW      -0.0125
     24 CAU        43.8956   15.4771  108.1297 C.3         1 LSW       0.0081
     25 CAW        39.8502   15.2747  112.0398 C.3         1 LSW      -0.0013
     26 NAX        42.3089   15.1464  111.5671 N.am        1 LSW      -0.2657
     27 CBB        41.2248   13.1685  112.4078 C.2         1 LSW       0.0613
     28 CBC        42.5245   14.9928  110.2622 C.2         1 LSW       0.2263
     29 CBD        46.3792   15.6753  114.7598 C.ar        1 LSW      -0.0427
     30 CBE        39.9266   16.6968  111.6092 C.2         1 LSW      -0.0424
     31 CBF        40.3054   18.9058  111.4975 C.ar        1 LSW       0.0603
     32 CBG        40.2297   17.8222  112.3776 C.ar        1 LSW      -0.0214
     33 CBI        43.5740   15.7917  109.6285 C.3         1 LSW       0.0683
     34 CBJ        41.2377   14.6452  112.3725 C.3         1 LSW       0.0987
     35 OXT        43.8493   13.2826  112.2188 O.co2       1 LSW      -0.5643
     36 NXZ        40.0318   18.4754  110.2577 N.pl3       1 LSW      -0.2891
     37 H1         45.5126   16.3877  109.9070 H           1 LSW       0.2052
     38 H2         44.5895   16.4782  111.2413 H           1 LSW       0.2052
     39 H3         46.2644   14.4120  110.2252 H           1 LSW       0.1027
     40 H4         46.9554   15.9109  112.0555 H           1 LSW       0.0361
     41 H5         47.0842   14.2008  112.4460 H           1 LSW       0.0361
     42 H6         43.0716   19.4071  103.8881 H           1 LSW       0.1994
     43 H7         42.9209   20.1913  105.3527 H           1 LSW       0.1994
     44 H8         41.9562   18.8711  105.0005 H           1 LSW       0.1994
     45 H9         48.3282   16.6113  117.9600 H           1 LSW       0.0559
     46 H10        48.9404   14.6238  116.7021 H           1 LSW       0.0599
     47 H11        46.4879   17.9989  117.2153 H           1 LSW       0.0599
     48 H12        41.1525   21.3076  113.6702 H           1 LSW       0.0530
     49 H13        41.0026   19.4378  115.2117 H           1 LSW       0.0510
     50 H14        47.7186   14.0250  114.7060 H           1 LSW       0.0557
     51 H15        45.2653   17.4191  115.2302 H           1 LSW       0.0557
     52 H16        40.6962   20.9762  111.2935 H           1 LSW       0.0541
     53 H17        40.4058   17.2277  114.4083 H           1 LSW       0.0540
     54 H18        39.6000   16.5760  109.4768 H           1 LSW       0.0795
     55 H19        44.7729   18.9816  105.7445 H           1 LSW       0.0813
     56 H20        44.1996   17.6882  104.6683 H           1 LSW       0.0813
     57 H21        42.5448   16.9554  106.3134 H           1 LSW       0.0317
     58 H22        42.9743   18.2741  107.4134 H           1 LSW       0.0317
     59 H23        45.1104   17.2864  107.9488 H           1 LSW       0.0270
     60 H24        45.0957   16.2632  106.5209 H           1 LSW       0.0270
     61 H25        45.0305   14.3551  113.8626 H           1 LSW       0.0429
     62 H26        44.8030   16.0107  113.3839 H           1 LSW       0.0429
     63 H27        44.6048   14.6503  108.0817 H           1 LSW       0.0346
     64 H28        42.9954   15.1281  107.6070 H           1 LSW       0.0346
     65 H29        39.3625   14.6869  111.2532 H           1 LSW       0.0390
     66 H30        39.2182   15.2098  112.9331 H           1 LSW       0.0390
     67 H31        42.8968   15.7632  112.0211 H           1 LSW       0.1878
     68 H32        43.1624   16.8057  109.6540 H           1 LSW       0.1099
     69 H33        41.4967   14.9668  113.3873 H           1 LSW       0.0741
     70 H34        40.0202   19.0247  109.4618 H           1 LSW       0.2216
@<TRIPOS>BOND
     1     1     3  ar
     2     4     1   1
     3     1    35  ar
     4     2     4   1
     5    33     2   1
     6     4     5   1
     7     5    23   1
     8    20     6   1
     9    27     7  ar
    10    28     8   2
    11    27     9  ar
    12    11    10  ar
    13    12    10  ar
    14    15    11  ar
    15    16    12  ar
    16    14    13  ar
    17    13    17  ar
    18    18    14  ar
    19    29    15  ar
    20    29    16  ar
    21    17    31  ar
    22    32    18  ar
    23    30    19   2
    24    19    36   1
    25    21    20   1
    26    22    21   1
    27    24    22   1
    28    23    29   1
    29    33    24   1
    30    30    25   1
    31    25    34   1
    32    26    28  am
    33    34    26   1
    34    34    27   1
    35    28    33   1
    36    30    32   1
    37    31    32  ar
    38    31    36   1
    39     2    37   1
    40     2    38   1
    41     4    39   1
    42     5    40   1
    43     5    41   1
    44     6    42   1
    45     6    43   1
    46     6    44   1
    47    10    45   1
    48    11    46   1
    49    12    47   1
    50    13    48   1
    51    14    49   1
    52    15    50   1
    53    16    51   1
    54    17    52   1
    55    18    53   1
    56    19    54   1
    57    20    55   1
    58    20    56   1
    59    21    57   1
    60    21    58   1
    61    22    59   1
    62    22    60   1
    63    23    61   1
    64    23    62   1
    65    24    63   1
    66    24    64   1
    67    25    65   1
    68    25    66   1
    69    26    67   1
    70    33    68   1
    71    34    69   1
    72    36    70   1
@<TRIPOS>SUBSTRUCTURE
     1  LSW      1

