@<TRIPOS>MOLECULE
3l3n_ligand_069
    70    72
SMALL
GAST_HUCK
****
This file was generated by PARSER (from files_GN.cpp)

@<TRIPOS>ATOM
      1 C          44.5208    8.1187  109.1459 C.2         1 LSW       0.0847
      2 N          42.7958    9.8631  109.3544 N.4         1 LSW       0.2599
      3 O          45.3565    9.0490  108.6395 O.co2       1 LSW      -0.5643
      4 CA         43.2675    8.5240  109.8263 C.3         1 LSW       0.0340
      5 CB         42.1357    7.4588  109.6949 C.3         1 LSW       0.0122
      6 NAA        42.1444    7.6352  114.7495 N.4         1 LSW       0.2185
      7 OAC        47.2749   11.4302  110.9231 O.co2       1 LSW      -0.5665
      8 OAD        44.9607   11.3903  108.8538 O.2         1 LSW      -0.3908
      9 OAF        47.9851   13.3517  111.9924 O.co2       1 LSW      -0.5665
     10 CAG        41.1441    3.3487  107.0084 C.ar        1 LSW      -0.0687
     11 CAH        42.2636    4.1332  106.6931 C.ar        1 LSW      -0.0686
     12 CAI        40.0705    3.9081  107.7257 C.ar        1 LSW      -0.0686
     13 CAJ        47.0388   16.9317  115.7817 C.ar        1 LSW      -0.0768
     14 CAK        47.9333   16.7774  114.7004 C.ar        1 LSW      -0.0792
     15 CAL        42.3124    5.4752  107.0991 C.ar        1 LSW      -0.0603
     16 CAM        40.1156    5.2574  108.1218 C.ar        1 LSW      -0.0603
     17 CAN        45.7184   16.4514  115.6791 C.ar        1 LSW      -0.0443
     18 CAO        47.5065   16.1646  113.5028 C.ar        1 LSW      -0.0747
     19 CAP        44.1715   14.8872  112.8883 C.2         1 LSW       0.0166
     20 CAQ        42.1166    8.2591  113.4268 C.3         1 LSW      -0.0354
     21 CAR        41.3753    9.6227  113.4407 C.3         1 LSW      -0.0123
     22 CAS        41.3747   10.3320  112.0590 C.3         1 LSW      -0.0410
     23 CAT        41.3650    7.4406  108.3401 C.3         1 LSW      -0.0125
     24 CAU        42.7617   10.9247  111.6772 C.3         1 LSW       0.0081
     25 CAW        45.8369   14.9531  110.9382 C.3         1 LSW      -0.0013
     26 NAX        44.8010   12.7501  110.5804 N.am        1 LSW      -0.2657
     27 CBB        47.0880   12.7430  111.1854 C.2         1 LSW       0.0613
     28 CBC        44.3377   11.7423  109.8485 C.2         1 LSW       0.2263
     29 CBD        41.2401    6.0567  107.8156 C.ar        1 LSW      -0.0427
     30 CBE        45.4425   15.1314  112.3607 C.2         1 LSW      -0.0424
     31 CBF        45.3212   15.8058  114.4976 C.ar        1 LSW       0.0603
     32 CBG        46.1815   15.6961  113.4033 C.ar        1 LSW      -0.0214
     33 CBI        43.0441   11.1112  110.1478 C.3         1 LSW       0.0683
     34 CBJ        46.0295   13.4812  110.4596 C.3         1 LSW       0.0987
     35 OXT        45.0225    6.8668  109.2151 O.co2       1 LSW      -0.5643
     36 NXZ        44.1329   15.2824  114.1708 N.pl3       1 LSW      -0.2891
     37 H1         41.7828    9.7965  109.2449 H           1 LSW       0.2052
     38 H2         43.1749   10.0105  108.4161 H           1 LSW       0.2052
     39 H3         43.5111    8.5469  110.8874 H           1 LSW       0.1027
     40 H4         41.4005    7.6225  110.4835 H           1 LSW       0.0361
     41 H5         42.5789    6.4798  109.9081 H           1 LSW       0.0361
     42 H6         42.6841    6.7684  114.7078 H           1 LSW       0.1994
     43 H7         41.1905    7.4276  115.0422 H           1 LSW       0.1994
     44 H8         42.5694    8.2766  115.4200 H           1 LSW       0.1994
     45 H9         41.1131    2.3767  106.7009 H           1 LSW       0.0559
     46 H10        43.0378    3.7298  106.1623 H           1 LSW       0.0599
     47 H11        39.2595    3.3344  107.9635 H           1 LSW       0.0599
     48 H12        47.3443   17.3990  116.6382 H           1 LSW       0.0530
     49 H13        48.8897   17.1305  114.7801 H           1 LSW       0.0510
     50 H14        43.1411    6.0221  106.8745 H           1 LSW       0.0557
     51 H15        39.3325    5.6481  108.6492 H           1 LSW       0.0557
     52 H16        45.0527   16.5934  116.4368 H           1 LSW       0.0541
     53 H17        48.1511   16.0707  112.7184 H           1 LSW       0.0540
     54 H18        43.3643   14.5339  112.3734 H           1 LSW       0.0795
     55 H19        41.6139    7.5693  112.7493 H           1 LSW       0.0813
     56 H20        43.1488    8.3828  113.1008 H           1 LSW       0.0813
     57 H21        41.8304   10.2793  114.1888 H           1 LSW       0.0317
     58 H22        40.3377    9.4539  113.7379 H           1 LSW       0.0317
     59 H23        40.6473   11.1483  112.0780 H           1 LSW       0.0270
     60 H24        41.0227    9.6267  111.3093 H           1 LSW       0.0270
     61 H25        41.8680    8.0650  107.5983 H           1 LSW       0.0429
     62 H26        40.3729    7.8811  108.4802 H           1 LSW       0.0429
     63 H27        43.5626   10.3202  112.0936 H           1 LSW       0.0346
     64 H28        42.8246   11.8875  112.1876 H           1 LSW       0.0346
     65 H29        46.7631   15.5008  110.7571 H           1 LSW       0.0390
     66 H30        45.0724   15.4262  110.3161 H           1 LSW       0.0390
     67 H31        44.2693   12.9872  111.3475 H           1 LSW       0.1878
     68 H32        42.2920   11.8234  109.7937 H           1 LSW       0.1099
     69 H33        46.3434   13.5214  109.4131 H           1 LSW       0.0741
     70 H34        43.3492   15.2662  114.7424 H           1 LSW       0.2216
@<TRIPOS>BOND
     1     1     3  ar
     2     4     1   1
     3     1    35  ar
     4     2     4   1
     5    33     2   1
     6     4     5   1
     7     5    23   1
     8    20     6   1
     9    27     7  ar
    10    28     8   2
    11    27     9  ar
    12    11    10  ar
    13    12    10  ar
    14    15    11  ar
    15    16    12  ar
    16    14    13  ar
    17    13    17  ar
    18    18    14  ar
    19    29    15  ar
    20    29    16  ar
    21    17    31  ar
    22    32    18  ar
    23    30    19   2
    24    19    36   1
    25    21    20   1
    26    22    21   1
    27    24    22   1
    28    23    29   1
    29    33    24   1
    30    30    25   1
    31    25    34   1
    32    26    28  am
    33    34    26   1
    34    34    27   1
    35    28    33   1
    36    30    32   1
    37    31    32  ar
    38    31    36   1
    39     2    37   1
    40     2    38   1
    41     4    39   1
    42     5    40   1
    43     5    41   1
    44     6    42   1
    45     6    43   1
    46     6    44   1
    47    10    45   1
    48    11    46   1
    49    12    47   1
    50    13    48   1
    51    14    49   1
    52    15    50   1
    53    16    51   1
    54    17    52   1
    55    18    53   1
    56    19    54   1
    57    20    55   1
    58    20    56   1
    59    21    57   1
    60    21    58   1
    61    22    59   1
    62    22    60   1
    63    23    61   1
    64    23    62   1
    65    24    63   1
    66    24    64   1
    67    25    65   1
    68    25    66   1
    69    26    67   1
    70    33    68   1
    71    34    69   1
    72    36    70   1
@<TRIPOS>SUBSTRUCTURE
     1  LSW      1

