@<TRIPOS>MOLECULE
3l3n_ligand_062
    70    72
SMALL
GAST_HUCK
****
This file was generated by PARSER (from files_GN.cpp)

@<TRIPOS>ATOM
      1 C          44.3338   12.8069  107.8856 C.2         1 LSW       0.0847
      2 N          42.2314   14.0753  107.8822 N.4         1 LSW       0.2599
      3 O          45.2150   12.4236  108.8451 O.co2       1 LSW      -0.5643
      4 CA         42.8759   12.7593  108.1666 C.3         1 LSW       0.0340
      5 CB         42.1723   11.6112  107.3732 C.3         1 LSW       0.0122
      6 NAA        42.2333   19.5756  104.7320 N.4         1 LSW       0.2185
      7 OAC        39.7037   13.5623  112.1671 O.co2       1 LSW      -0.5665
      8 OAD        40.3259   14.8023  109.6734 O.2         1 LSW      -0.3908
      9 OAF        41.1644   13.8362  113.9539 O.co2       1 LSW      -0.5665
     10 CAG        39.8521    8.7339  103.7351 C.ar        1 LSW      -0.0687
     11 CAH        39.2840   10.0048  103.9245 C.ar        1 LSW      -0.0686
     12 CAI        41.1320    8.4501  104.2495 C.ar        1 LSW      -0.0686
     13 CAJ        39.8755   21.0782  109.1197 C.ar        1 LSW      -0.0768
     14 CAK        39.4215   19.8019  108.7240 C.ar        1 LSW      -0.0792
     15 CAL        39.9988   10.9978  104.6237 C.ar        1 LSW      -0.0603
     16 CAM        41.8346    9.4327  104.9750 C.ar        1 LSW      -0.0603
     17 CAN        40.4048   21.2785  110.4107 C.ar        1 LSW      -0.0443
     18 CAO        39.4761   18.7125  109.6193 C.ar        1 LSW      -0.0747
     19 CAP        40.7285   18.8802  113.0197 C.2         1 LSW       0.0166
     20 CAQ        42.1451   18.4996  105.7326 C.3         1 LSW      -0.0354
     21 CAR        43.5424   18.0404  106.1935 C.3         1 LSW      -0.0123
     22 CAS        43.5988   16.8241  107.1777 C.3         1 LSW      -0.0410
     23 CAT        42.0737   11.8007  105.8271 C.3         1 LSW      -0.0125
     24 CAU        42.3751   16.5693  108.1220 C.3         1 LSW       0.0081
     25 CAW        39.7821   16.6613  112.1964 C.3         1 LSW      -0.0013
     26 NAX        41.8011   15.6046  111.1494 N.am        1 LSW      -0.2657
     27 CBB        40.6048   14.3311  112.8187 C.2         1 LSW       0.0613
     28 CBC        41.4682   15.1640  109.9410 C.2         1 LSW       0.2263
     29 CBD        41.2880   10.7270  105.1472 C.ar        1 LSW      -0.0427
     30 CBE        40.1634   18.0838  112.0184 C.2         1 LSW      -0.0424
     31 CBF        40.4556   20.1872  111.2943 C.ar        1 LSW       0.0603
     32 CBG        39.9957   18.9203  110.9155 C.ar        1 LSW      -0.0214
     33 CBI        42.4591   15.1954  108.8644 C.3         1 LSW       0.0683
     34 CBJ        40.9863   15.6815  112.3319 C.3         1 LSW       0.0987
     35 OXT        44.8210   13.2813  106.7071 O.co2       1 LSW      -0.5643
     36 NXZ        40.8912   20.1327  112.5607 N.pl3       1 LSW      -0.2891
     37 H1         41.2149   13.9118  107.8275 H           1 LSW       0.2052
     38 H2         42.5310   14.3762  106.9442 H           1 LSW       0.2052
     39 H3         42.7367   12.5343  109.2278 H           1 LSW       0.1027
     40 H4         41.1505   11.5075  107.7693 H           1 LSW       0.0361
     41 H5         42.7048   10.6702  107.5872 H           1 LSW       0.0361
     42 H6         41.2795   19.9019  104.5267 H           1 LSW       0.1994
     43 H7         42.6620   19.2155  103.8750 H           1 LSW       0.1994
     44 H8         42.7832   20.3485  105.1067 H           1 LSW       0.1994
     45 H9         39.3445    8.0229  103.2048 H           1 LSW       0.0559
     46 H10        38.3702   10.2200  103.5384 H           1 LSW       0.0599
     47 H11        41.5509    7.5298  104.1119 H           1 LSW       0.0599
     48 H12        39.8276   21.8613  108.4650 H           1 LSW       0.0530
     49 H13        39.0334   19.6682  107.7917 H           1 LSW       0.0510
     50 H14        39.5756   11.9253  104.7384 H           1 LSW       0.0557
     51 H15        42.7616    9.2027  105.3336 H           1 LSW       0.0557
     52 H16        40.7376   22.1969  110.6988 H           1 LSW       0.0541
     53 H17        39.1396   17.7914  109.3341 H           1 LSW       0.0540
     54 H18        40.9574   18.5799  113.9744 H           1 LSW       0.0795
     55 H19        41.5795   17.6601  105.2987 H           1 LSW       0.0813
     56 H20        41.5890   18.8982  106.5906 H           1 LSW       0.0813
     57 H21        44.0343   18.9036  106.6598 H           1 LSW       0.0317
     58 H22        44.1387   17.7844  105.3131 H           1 LSW       0.0317
     59 H23        44.5013   16.9463  107.8092 H           1 LSW       0.0270
     60 H24        43.7694   15.9152  106.5798 H           1 LSW       0.0270
     61 H25        43.0794   11.8172  105.3945 H           1 LSW       0.0429
     62 H26        41.6233   12.7754  105.6214 H           1 LSW       0.0429
     63 H27        41.4522   16.5666  107.5356 H           1 LSW       0.0346
     64 H28        42.3386   17.3980  108.8452 H           1 LSW       0.0346
     65 H29        39.1562   16.3486  111.3465 H           1 LSW       0.0390
     66 H30        39.1633   16.5989  113.0906 H           1 LSW       0.0390
     67 H31        42.7095   15.9519  111.2551 H           1 LSW       0.1878
     68 H32        43.4648   15.1103  109.2850 H           1 LSW       0.1099
     69 H33        41.6415   16.1002  113.1002 H           1 LSW       0.0741
     70 H34        41.2620   20.8741  113.0619 H           1 LSW       0.2216
@<TRIPOS>BOND
     1     1     3  ar
     2     4     1   1
     3     1    35  ar
     4     2     4   1
     5    33     2   1
     6     4     5   1
     7     5    23   1
     8    20     6   1
     9    27     7  ar
    10    28     8   2
    11    27     9  ar
    12    11    10  ar
    13    12    10  ar
    14    15    11  ar
    15    16    12  ar
    16    14    13  ar
    17    13    17  ar
    18    18    14  ar
    19    29    15  ar
    20    29    16  ar
    21    17    31  ar
    22    32    18  ar
    23    30    19   2
    24    19    36   1
    25    21    20   1
    26    22    21   1
    27    24    22   1
    28    23    29   1
    29    33    24   1
    30    30    25   1
    31    25    34   1
    32    26    28  am
    33    34    26   1
    34    34    27   1
    35    28    33   1
    36    30    32   1
    37    31    32  ar
    38    31    36   1
    39     2    37   1
    40     2    38   1
    41     4    39   1
    42     5    40   1
    43     5    41   1
    44     6    42   1
    45     6    43   1
    46     6    44   1
    47    10    45   1
    48    11    46   1
    49    12    47   1
    50    13    48   1
    51    14    49   1
    52    15    50   1
    53    16    51   1
    54    17    52   1
    55    18    53   1
    56    19    54   1
    57    20    55   1
    58    20    56   1
    59    21    57   1
    60    21    58   1
    61    22    59   1
    62    22    60   1
    63    23    61   1
    64    23    62   1
    65    24    63   1
    66    24    64   1
    67    25    65   1
    68    25    66   1
    69    26    67   1
    70    33    68   1
    71    34    69   1
    72    36    70   1
@<TRIPOS>SUBSTRUCTURE
     1  LSW      1

