@<TRIPOS>MOLECULE
3l3n_ligand_080
    70    72
SMALL
GAST_HUCK
****
This file was generated by PARSER (from files_GN.cpp)

@<TRIPOS>ATOM
      1 C          43.6567   16.7405  109.1816 C.2         1 LSW       0.0847
      2 N          42.5577   15.4100  110.9272 N.4         1 LSW       0.2599
      3 O          44.8076   16.8036  108.4733 O.co2       1 LSW      -0.5643
      4 CA         43.0582   15.4318  109.5171 C.3         1 LSW       0.0340
      5 CB         41.9553   15.0126  108.4903 C.3         1 LSW       0.0122
      6 NAA        40.6879    8.3193  112.5649 N.4         1 LSW       0.2185
      7 OAC        46.6387   13.2113  110.1880 O.co2       1 LSW      -0.5665
      8 OAD        44.6285   13.6373  113.2549 O.2         1 LSW      -0.3908
      9 OAF        48.5689   13.4186  111.3886 O.co2       1 LSW      -0.5665
     10 CAG        42.0737   19.2286  105.4457 C.ar        1 LSW      -0.0687
     11 CAH        42.2304   17.8875  105.0580 C.ar        1 LSW      -0.0686
     12 CAI        41.4823   19.5346  106.6836 C.ar        1 LSW      -0.0686
     13 CAJ        48.1009   19.4553  116.2979 C.ar        1 LSW      -0.0768
     14 CAK        49.0345   18.7509  115.5063 C.ar        1 LSW      -0.0792
     15 CAL        41.8059   16.8545  105.9133 C.ar        1 LSW      -0.0603
     16 CAM        41.0781   18.4981  107.5482 C.ar        1 LSW      -0.0603
     17 CAN        46.7734   18.9886  116.4167 C.ar        1 LSW      -0.0443
     18 CAO        48.6478   17.5844  114.8082 C.ar        1 LSW      -0.0747
     19 CAP        45.3563   16.0918  114.8692 C.2         1 LSW       0.0166
     20 CAQ        41.8607    9.1744  112.3883 C.3         1 LSW      -0.0354
     21 CAR        41.4382   10.6582  112.3077 C.3         1 LSW      -0.0123
     22 CAS        42.6437   11.6374  112.1710 C.3         1 LSW      -0.0410
     23 CAT        40.8455   16.0404  108.1045 C.3         1 LSW      -0.0125
     24 CAU        42.3438   12.9326  111.3474 C.3         1 LSW       0.0081
     25 CAW        47.1736   14.9771  113.4725 C.3         1 LSW      -0.0013
     26 NAX        45.2928   15.0535  111.7324 N.am        1 LSW      -0.2657
     27 CBB        47.2727   13.7750  111.2415 C.2         1 LSW       0.0613
     28 CBC        44.3450   14.2767  112.2531 C.2         1 LSW       0.2263
     29 CBD        41.2588   17.1411  107.1872 C.ar        1 LSW      -0.0427
     30 CBE        46.6452   16.0589  114.3372 C.2         1 LSW      -0.0424
     31 CBF        46.4046   17.8219  115.7209 C.ar        1 LSW       0.0603
     32 CBG        47.3157   17.1408  114.9082 C.ar        1 LSW      -0.0214
     33 CBI        42.9333   14.2980  111.8543 C.3         1 LSW       0.0683
     34 CBJ        46.7137   14.9505  111.9691 C.3         1 LSW       0.0987
     35 OXT        43.0524   17.8992  109.5396 O.co2       1 LSW      -0.5643
     36 NXZ        45.2413   17.1602  115.6801 N.pl3       1 LSW      -0.2891
     37 H1         41.5365   15.4382  110.8955 H           1 LSW       0.2052
     38 H2         42.8674   16.2708  111.3791 H           1 LSW       0.2052
     39 H3         43.8654   14.6987  109.4222 H           1 LSW       0.1027
     40 H4         41.4391   14.1429  108.9053 H           1 LSW       0.0361
     41 H5         42.4466   14.6558  107.5810 H           1 LSW       0.0361
     42 H6         40.9616    7.3510  112.3966 H           1 LSW       0.1994
     43 H7         39.9572    8.5855  111.8997 H           1 LSW       0.1994
     44 H8         40.3319    8.4128  113.5196 H           1 LSW       0.1994
     45 H9         42.3765   19.9804  104.8225 H           1 LSW       0.0559
     46 H10        42.6452   17.6630  104.1502 H           1 LSW       0.0599
     47 H11        41.3455   20.5117  106.9573 H           1 LSW       0.0599
     48 H12        48.3933   20.2976  116.7972 H           1 LSW       0.0530
     49 H13        49.9983   19.0881  115.4349 H           1 LSW       0.0510
     50 H14        41.9011   15.8892  105.5957 H           1 LSW       0.0557
     51 H15        40.6415   18.7444  108.4407 H           1 LSW       0.0557
     52 H16        46.0964   19.4866  116.9972 H           1 LSW       0.0541
     53 H17        49.3299   17.0831  114.2332 H           1 LSW       0.0540
     54 H18        44.6182   15.4030  114.6842 H           1 LSW       0.0795
     55 H19        42.3580    8.8906  111.4582 H           1 LSW       0.0813
     56 H20        42.5486    9.0134  113.2223 H           1 LSW       0.0813
     57 H21        40.8780   10.9197  113.2126 H           1 LSW       0.0317
     58 H22        40.7575   10.7593  111.4574 H           1 LSW       0.0317
     59 H23        43.4935   11.1305  111.6948 H           1 LSW       0.0270
     60 H24        42.9569   11.8846  113.1881 H           1 LSW       0.0270
     61 H25        40.4066   16.4374  109.0256 H           1 LSW       0.0429
     62 H26        40.0494   15.4896  107.5933 H           1 LSW       0.0429
     63 H27        41.2600   13.0787  111.3006 H           1 LSW       0.0346
     64 H28        42.6815   12.7395  110.3229 H           1 LSW       0.0346
     65 H29        46.9435   14.0241  113.9516 H           1 LSW       0.0390
     66 H30        48.2603   15.0584  113.4921 H           1 LSW       0.0390
     67 H31        45.0209   15.6850  111.0473 H           1 LSW       0.1878
     68 H32        42.3970   14.5270  112.7780 H           1 LSW       0.1099
     69 H33        47.1559   15.8285  111.4948 H           1 LSW       0.0741
     70 H34        44.4307   17.4066  116.1470 H           1 LSW       0.2216
@<TRIPOS>BOND
     1     1     3  ar
     2     4     1   1
     3     1    35  ar
     4     2     4   1
     5    33     2   1
     6     4     5   1
     7     5    23   1
     8    20     6   1
     9    27     7  ar
    10    28     8   2
    11    27     9  ar
    12    11    10  ar
    13    12    10  ar
    14    15    11  ar
    15    16    12  ar
    16    14    13  ar
    17    13    17  ar
    18    18    14  ar
    19    29    15  ar
    20    29    16  ar
    21    17    31  ar
    22    32    18  ar
    23    30    19   2
    24    19    36   1
    25    21    20   1
    26    22    21   1
    27    24    22   1
    28    23    29   1
    29    33    24   1
    30    30    25   1
    31    25    34   1
    32    26    28  am
    33    34    26   1
    34    34    27   1
    35    28    33   1
    36    30    32   1
    37    31    32  ar
    38    31    36   1
    39     2    37   1
    40     2    38   1
    41     4    39   1
    42     5    40   1
    43     5    41   1
    44     6    42   1
    45     6    43   1
    46     6    44   1
    47    10    45   1
    48    11    46   1
    49    12    47   1
    50    13    48   1
    51    14    49   1
    52    15    50   1
    53    16    51   1
    54    17    52   1
    55    18    53   1
    56    19    54   1
    57    20    55   1
    58    20    56   1
    59    21    57   1
    60    21    58   1
    61    22    59   1
    62    22    60   1
    63    23    61   1
    64    23    62   1
    65    24    63   1
    66    24    64   1
    67    25    65   1
    68    25    66   1
    69    26    67   1
    70    33    68   1
    71    34    69   1
    72    36    70   1
@<TRIPOS>SUBSTRUCTURE
     1  LSW      1

