@<TRIPOS>MOLECULE
3l3n_ligand_066
    70    72
SMALL
GAST_HUCK
****
This file was generated by PARSER (from files_GN.cpp)

@<TRIPOS>ATOM
      1 C          44.7438    8.5444  109.5825 C.2         1 LSW       0.0847
      2 N          43.3869   10.6400  109.5880 N.4         1 LSW       0.2599
      3 O          44.9986    7.2861  110.0289 O.co2       1 LSW      -0.5643
      4 CA         43.8712    9.4588  110.3656 C.3         1 LSW       0.0340
      5 CB         42.6332    8.7530  111.0164 C.3         1 LSW       0.0122
      6 NAA        40.3315   13.0645  105.9931 N.4         1 LSW       0.2185
      7 OAC        47.7984   13.2117  110.4842 O.co2       1 LSW      -0.5665
      8 OAD        45.8903   11.7074  110.6727 O.2         1 LSW      -0.3908
      9 OAF        47.6725   14.0283  112.6229 O.co2       1 LSW      -0.5665
     10 CAG        42.0314    5.5541  106.9713 C.ar        1 LSW      -0.0687
     11 CAH        41.6048    5.1405  108.2482 C.ar        1 LSW      -0.0686
     12 CAI        42.2480    6.9172  106.7141 C.ar        1 LSW      -0.0686
     13 CAJ        39.9912   15.4466  110.3121 C.ar        1 LSW      -0.0768
     14 CAK        41.1373   16.1674  109.9137 C.ar        1 LSW      -0.0792
     15 CAL        41.4346    6.0922  109.2730 C.ar        1 LSW      -0.0603
     16 CAM        42.0369    7.8676  107.7298 C.ar        1 LSW      -0.0603
     17 CAN        40.0786   14.4727  111.3315 C.ar        1 LSW      -0.0443
     18 CAO        42.3877   15.9140  110.5186 C.ar        1 LSW      -0.0747
     19 CAP        42.9729   13.5156  113.1673 C.2         1 LSW       0.0166
     20 CAQ        39.9546   13.2733  107.3980 C.3         1 LSW      -0.0354
     21 CAR        40.8761   12.5201  108.3927 C.3         1 LSW      -0.0123
     22 CAS        42.2378   13.2328  108.6408 C.3         1 LSW      -0.0410
     23 CAT        41.4025    8.4657  110.1076 C.3         1 LSW      -0.0125
     24 CAU        43.4851   12.5397  108.0048 C.3         1 LSW       0.0081
     25 CAW        44.9509   14.8982  112.3221 C.3         1 LSW      -0.0013
     26 NAX        45.0762   13.6836  110.1349 N.am        1 LSW      -0.2657
     27 CBB        47.1735   14.0238  111.3657 C.2         1 LSW       0.0613
     28 CBC        45.0882   12.3580  110.0081 C.2         1 LSW       0.2263
     29 CBD        41.6378    7.4691  109.0287 C.ar        1 LSW      -0.0427
     30 CBE        43.5270   14.4849  112.3231 C.2         1 LSW      -0.0424
     31 CBF        41.3228   14.2550  111.9444 C.ar        1 LSW       0.0603
     32 CBG        42.4651   14.9568  111.5465 C.ar        1 LSW      -0.0214
     33 CBI        44.3065   11.6508  108.9919 C.3         1 LSW       0.0683
     34 CBJ        45.7984   14.5140  111.0615 C.3         1 LSW       0.0987
     35 OXT        45.6948    9.1013  108.7849 O.co2       1 LSW      -0.5643
     36 NXZ        41.6533   13.4054  112.9264 N.pl3       1 LSW      -0.2891
     37 H1         42.7236   11.1431  110.1760 H           1 LSW       0.2052
     38 H2         42.8487   10.2635  108.8133 H           1 LSW       0.2052
     39 H3         44.4703    9.8233  111.2000 H           1 LSW       0.1027
     40 H4         42.2771    9.3930  111.8303 H           1 LSW       0.0361
     41 H5         42.9434    7.8162  111.4915 H           1 LSW       0.0361
     42 H6         39.8419   13.7536  105.4174 H           1 LSW       0.1994
     43 H7         40.0770   12.1151  105.7003 H           1 LSW       0.1994
     44 H8         41.3382   13.1948  105.8769 H           1 LSW       0.1994
     45 H9         42.1790    4.8624  106.2390 H           1 LSW       0.0559
     46 H10        41.4316    4.1500  108.4297 H           1 LSW       0.0599
     47 H11        42.5528    7.2198  105.7835 H           1 LSW       0.0599
     48 H12        39.0914   15.6348  109.8637 H           1 LSW       0.0530
     49 H13        41.0656   16.8702  109.1745 H           1 LSW       0.0510
     50 H14        41.1492    5.7660  110.1988 H           1 LSW       0.0557
     51 H15        42.1825    8.8528  107.5057 H           1 LSW       0.0557
     52 H16        39.2544   13.9401  111.6170 H           1 LSW       0.0541
     53 H17        43.2179   16.4231  110.2148 H           1 LSW       0.0540
     54 H18        43.4794   12.9817  113.8711 H           1 LSW       0.0795
     55 H19        38.9198   12.9402  107.5312 H           1 LSW       0.0813
     56 H20        39.9988   14.3480  107.6097 H           1 LSW       0.0813
     57 H21        41.0216   11.4995  108.0284 H           1 LSW       0.0317
     58 H22        40.3328   12.4451  109.3393 H           1 LSW       0.0317
     59 H23        42.3862   13.2900  109.7171 H           1 LSW       0.0270
     60 H24        42.1883   14.2693  108.2891 H           1 LSW       0.0270
     61 H25        41.0429    9.4003  109.6756 H           1 LSW       0.0429
     62 H26        40.5849    8.1054  110.7399 H           1 LSW       0.0429
     63 H27        44.1442   13.3072  107.5875 H           1 LSW       0.0346
     64 H28        43.1700   11.9314  107.1519 H           1 LSW       0.0346
     65 H29        45.4151   14.4707  113.2101 H           1 LSW       0.0390
     66 H30        44.9890   15.9858  112.4549 H           1 LSW       0.0390
     67 H31        44.4854   14.1660  109.5421 H           1 LSW       0.1878
     68 H32        45.0288   11.1264  108.3518 H           1 LSW       0.1099
     69 H33        45.9584   15.4497  110.5116 H           1 LSW       0.0741
     70 H34        41.0465   12.7954  113.3758 H           1 LSW       0.2216
@<TRIPOS>BOND
     1     1     3  ar
     2     4     1   1
     3     1    35  ar
     4     2     4   1
     5    33     2   1
     6     4     5   1
     7     5    23   1
     8    20     6   1
     9    27     7  ar
    10    28     8   2
    11    27     9  ar
    12    11    10  ar
    13    12    10  ar
    14    15    11  ar
    15    16    12  ar
    16    14    13  ar
    17    13    17  ar
    18    18    14  ar
    19    29    15  ar
    20    29    16  ar
    21    17    31  ar
    22    32    18  ar
    23    30    19   2
    24    19    36   1
    25    21    20   1
    26    22    21   1
    27    24    22   1
    28    23    29   1
    29    33    24   1
    30    30    25   1
    31    25    34   1
    32    26    28  am
    33    34    26   1
    34    34    27   1
    35    28    33   1
    36    30    32   1
    37    31    32  ar
    38    31    36   1
    39     2    37   1
    40     2    38   1
    41     4    39   1
    42     5    40   1
    43     5    41   1
    44     6    42   1
    45     6    43   1
    46     6    44   1
    47    10    45   1
    48    11    46   1
    49    12    47   1
    50    13    48   1
    51    14    49   1
    52    15    50   1
    53    16    51   1
    54    17    52   1
    55    18    53   1
    56    19    54   1
    57    20    55   1
    58    20    56   1
    59    21    57   1
    60    21    58   1
    61    22    59   1
    62    22    60   1
    63    23    61   1
    64    23    62   1
    65    24    63   1
    66    24    64   1
    67    25    65   1
    68    25    66   1
    69    26    67   1
    70    33    68   1
    71    34    69   1
    72    36    70   1
@<TRIPOS>SUBSTRUCTURE
     1  LSW      1

