@<TRIPOS>MOLECULE
3l3n_ligand_034
    70    72
SMALL
GAST_HUCK
****
This file was generated by PARSER (from files_GN.cpp)

@<TRIPOS>ATOM
      1 C          40.2794    9.9183  111.6765 C.2         1 LSW       0.0847
      2 N          41.5933    9.0405  113.5974 N.4         1 LSW       0.2599
      3 O          39.3721    8.9153  111.7180 O.co2       1 LSW      -0.5643
      4 CA         41.0561   10.2408  112.8981 C.3         1 LSW       0.0340
      5 CB         42.0725   11.4244  112.7580 C.3         1 LSW       0.0122
      6 NAA        41.3372    4.4319  117.5321 N.4         1 LSW       0.2185
      7 OAC        45.4298    6.5700  108.9380 O.co2       1 LSW      -0.5665
      8 OAD        41.2509    7.0514  111.2563 O.2         1 LSW      -0.3908
      9 OAF        45.2115    8.8588  108.5655 O.co2       1 LSW      -0.5665
     10 CAG        43.6064   15.6821  110.2672 C.ar        1 LSW      -0.0687
     11 CAH        44.6749   14.7643  110.3455 C.ar        1 LSW      -0.0686
     12 CAI        42.2977   15.2541  110.5458 C.ar        1 LSW      -0.0686
     13 CAJ        37.2849   10.0422  107.9481 C.ar        1 LSW      -0.0768
     14 CAK        38.4584   10.8284  107.8936 C.ar        1 LSW      -0.0792
     15 CAL        44.4310   13.4265  110.7171 C.ar        1 LSW      -0.0603
     16 CAM        42.0577   13.9129  110.9127 C.ar        1 LSW      -0.0603
     17 CAN        37.3699    8.6401  108.0750 C.ar        1 LSW      -0.0443
     18 CAO        39.7287   10.2241  108.0000 C.ar        1 LSW      -0.0747
     19 CAP        40.3341    6.6694  108.2594 C.2         1 LSW       0.0166
     20 CAQ        41.5735    5.5589  116.6237 C.3         1 LSW      -0.0354
     21 CAR        42.9927    5.4845  116.0010 C.3         1 LSW      -0.0123
     22 CAS        43.3176    6.6618  115.0405 C.3         1 LSW      -0.0410
     23 CAT        42.8436   11.5592  111.4003 C.3         1 LSW      -0.0125
     24 CAU        42.4055    6.7139  113.7819 C.3         1 LSW       0.0081
     25 CAW        42.3377    8.2863  108.2103 C.3         1 LSW      -0.0013
     26 NAX        43.1066    8.0981  110.6235 N.am        1 LSW      -0.2657
     27 CBB        44.6500    7.6750  108.9178 C.2         1 LSW       0.0613
     28 CBC        42.2167    7.7500  111.5465 C.2         1 LSW       0.2263
     29 CBD        43.1206   12.9762  111.0153 C.ar        1 LSW      -0.0427
     30 CBE        40.8922    7.9513  108.2398 C.2         1 LSW      -0.0424
     31 CBF        38.6440    8.0471  108.1576 C.ar        1 LSW       0.0603
     32 CBG        39.8071    8.8253  108.1427 C.ar        1 LSW      -0.0214
     33 CBI        42.4943    8.0399  112.9552 C.3         1 LSW       0.0683
     34 CBJ        43.2190    7.5782  109.2877 C.3         1 LSW       0.0987
     35 OXT        40.0121   10.9185  110.8064 O.co2       1 LSW      -0.5643
     36 NXZ        38.9913    6.7551  108.2251 N.pl3       1 LSW      -0.2891
     37 H1         40.7877    8.5449  113.9821 H           1 LSW       0.2052
     38 H2         42.1052    9.4015  114.4089 H           1 LSW       0.2052
     39 H3         40.2964   10.6042  113.5989 H           1 LSW       0.1027
     40 H4         42.8089   11.3564  113.5671 H           1 LSW       0.0361
     41 H5         41.5068   12.3431  112.9427 H           1 LSW       0.0361
     42 H6         40.3967    4.5094  117.9306 H           1 LSW       0.1994
     43 H7         42.0294    4.4472  118.2862 H           1 LSW       0.1994
     44 H8         41.4118    3.5512  117.0133 H           1 LSW       0.1994
     45 H9         43.7824   16.6513  109.9856 H           1 LSW       0.0559
     46 H10        45.6268   15.0778  110.1387 H           1 LSW       0.0599
     47 H11        41.5211   15.9185  110.4893 H           1 LSW       0.0599
     48 H12        36.3702   10.4955  107.8854 H           1 LSW       0.0530
     49 H13        38.3876   11.8433  107.7899 H           1 LSW       0.0510
     50 H14        45.2231   12.7849  110.7676 H           1 LSW       0.0557
     51 H15        41.0948   13.6251  111.1084 H           1 LSW       0.0557
     52 H16        36.5251    8.0673  108.0977 H           1 LSW       0.0541
     53 H17        40.5697   10.7989  107.9708 H           1 LSW       0.0540
     54 H18        40.8559    5.7932  108.2760 H           1 LSW       0.0795
     55 H19        41.4651    6.4893  117.1880 H           1 LSW       0.0813
     56 H20        40.8073    5.5340  115.8452 H           1 LSW       0.0813
     57 H21        43.1055    4.5374  115.4638 H           1 LSW       0.0317
     58 H22        43.7227    5.4879  116.8179 H           1 LSW       0.0317
     59 H23        44.3572    6.5571  114.7043 H           1 LSW       0.0270
     60 H24        43.2562    7.5982  115.6026 H           1 LSW       0.0270
     61 H25        42.2749   11.1161  110.5806 H           1 LSW       0.0429
     62 H26        43.7788   10.9956  111.4800 H           1 LSW       0.0429
     63 H27        41.3653    6.5649  114.0797 H           1 LSW       0.0346
     64 H28        42.6808    5.8638  113.1512 H           1 LSW       0.0346
     65 H29        42.4747    9.3661  108.3039 H           1 LSW       0.0390
     66 H30        42.6930    7.9987  107.2155 H           1 LSW       0.0390
     67 H31        43.8666    8.6198  110.9356 H           1 LSW       0.1878
     68 H32        43.5159    8.4229  113.0554 H           1 LSW       0.1099
     69 H33        42.9614    6.5164  109.3000 H           1 LSW       0.0741
     70 H34        38.3747    5.9991  108.1953 H           1 LSW       0.2216
@<TRIPOS>BOND
     1     1     3  ar
     2     4     1   1
     3     1    35  ar
     4     2     4   1
     5    33     2   1
     6     4     5   1
     7     5    23   1
     8    20     6   1
     9    27     7  ar
    10    28     8   2
    11    27     9  ar
    12    11    10  ar
    13    12    10  ar
    14    15    11  ar
    15    16    12  ar
    16    14    13  ar
    17    13    17  ar
    18    18    14  ar
    19    29    15  ar
    20    29    16  ar
    21    17    31  ar
    22    32    18  ar
    23    30    19   2
    24    19    36   1
    25    21    20   1
    26    22    21   1
    27    24    22   1
    28    23    29   1
    29    33    24   1
    30    30    25   1
    31    25    34   1
    32    26    28  am
    33    34    26   1
    34    34    27   1
    35    28    33   1
    36    30    32   1
    37    31    32  ar
    38    31    36   1
    39     2    37   1
    40     2    38   1
    41     4    39   1
    42     5    40   1
    43     5    41   1
    44     6    42   1
    45     6    43   1
    46     6    44   1
    47    10    45   1
    48    11    46   1
    49    12    47   1
    50    13    48   1
    51    14    49   1
    52    15    50   1
    53    16    51   1
    54    17    52   1
    55    18    53   1
    56    19    54   1
    57    20    55   1
    58    20    56   1
    59    21    57   1
    60    21    58   1
    61    22    59   1
    62    22    60   1
    63    23    61   1
    64    23    62   1
    65    24    63   1
    66    24    64   1
    67    25    65   1
    68    25    66   1
    69    26    67   1
    70    33    68   1
    71    34    69   1
    72    36    70   1
@<TRIPOS>SUBSTRUCTURE
     1  LSW      1

