@<TRIPOS>MOLECULE
3l3n_ligand_018
    70    72
SMALL
GAST_HUCK
****
This file was generated by PARSER (from files_GN.cpp)

@<TRIPOS>ATOM
      1 C          44.5952    9.1745  109.8270 C.2         1 LSW       0.0847
      2 N          44.4394   11.5881  109.5330 N.4         1 LSW       0.2599
      3 O          44.3111    7.9954  110.4189 O.co2       1 LSW      -0.5643
      4 CA         43.8451   10.3965  110.2083 C.3         1 LSW       0.0340
      5 CB         42.2990   10.2288  109.9485 C.3         1 LSW       0.0122
      6 NAA        45.6422   15.4106  114.2206 N.4         1 LSW       0.2185
      7 OAC        43.4550   15.7038  106.9507 O.co2       1 LSW      -0.5665
      8 OAD        42.6698   12.9759  108.0252 O.2         1 LSW      -0.3908
      9 OAF        41.4604   16.7930  106.4752 O.co2       1 LSW      -0.5665
     10 CAG        42.8852    6.7327  113.6342 C.ar        1 LSW      -0.0687
     11 CAH        42.2441    6.4755  112.4102 C.ar        1 LSW      -0.0686
     12 CAI        43.0156    8.0524  114.0926 C.ar        1 LSW      -0.0686
     13 CAJ        39.0477   20.5189  106.2770 C.ar        1 LSW      -0.0768
     14 CAK        40.4184   20.2620  106.5103 C.ar        1 LSW      -0.0792
     15 CAL        41.7399    7.5407  111.6410 C.ar        1 LSW      -0.0603
     16 CAM        42.5140    9.1193  113.3271 C.ar        1 LSW      -0.0603
     17 CAN        38.0614   19.7474  106.9244 C.ar        1 LSW      -0.0443
     18 CAO        40.8171   19.2392  107.3928 C.ar        1 LSW      -0.0747
     19 CAP        38.5705   17.0477  109.1947 C.2         1 LSW       0.0166
     20 CAQ        46.4304   16.1352  113.2155 C.3         1 LSW      -0.0354
     21 CAR        46.0413   15.7563  111.7645 C.3         1 LSW      -0.0123
     22 CAS        45.7126   14.2521  111.5444 C.3         1 LSW      -0.0410
     23 CAT        41.4296   10.0058  111.2233 C.3         1 LSW      -0.0125
     24 CAU        45.2587   13.9181  110.0819 C.3         1 LSW       0.0081
     25 CAW        41.0964   16.7255  109.4606 C.3         1 LSW      -0.0013
     26 NAX        42.5212   14.7534  109.3499 N.am        1 LSW      -0.2657
     27 CBB        42.1881   16.0214  107.3112 C.2         1 LSW       0.0613
     28 CBC        43.0049   13.5518  109.0523 C.2         1 LSW       0.2263
     29 CBD        41.8938    8.8777  112.0786 C.ar        1 LSW      -0.0427
     30 CBE        39.8928   17.4029  108.9263 C.2         1 LSW      -0.0424
     31 CBF        38.4713   18.7322  107.8056 C.ar        1 LSW       0.0603
     32 CBG        39.8281   18.4793  108.0423 C.ar        1 LSW      -0.0214
     33 CBI        44.0068   12.9679  109.9453 C.3         1 LSW       0.0683
     34 CBJ        41.5951   15.5380  108.5828 C.3         1 LSW       0.0987
     35 OXT        45.5603    9.1785  108.8765 O.co2       1 LSW      -0.5643
     36 NXZ        37.7433   17.8625  108.5184 N.pl3       1 LSW      -0.2891
     37 H1         44.2975   11.4861  108.5270 H           1 LSW       0.2052
     38 H2         45.4456   11.5273  109.7039 H           1 LSW       0.2052
     39 H3         44.0212   10.5284  111.2795 H           1 LSW       0.1027
     40 H4         42.1099    9.4100  109.2425 H           1 LSW       0.0361
     41 H5         41.9183   11.1315  109.4590 H           1 LSW       0.0361
     42 H6         45.8474   15.7759  115.1539 H           1 LSW       0.1994
     43 H7         45.8995   14.4228  114.1782 H           1 LSW       0.1994
     44 H8         44.6413   15.5122  114.0304 H           1 LSW       0.1994
     45 H9         43.2600    5.9615  114.1848 H           1 LSW       0.0559
     46 H10        42.1520    5.5155  112.0748 H           1 LSW       0.0599
     47 H11        43.4845    8.2444  114.9763 H           1 LSW       0.0599
     48 H12        38.7663   21.2545  105.6245 H           1 LSW       0.0530
     49 H13        41.1209   20.8163  106.0145 H           1 LSW       0.0510
     50 H14        41.2803    7.3326  110.7464 H           1 LSW       0.0557
     51 H15        42.6267   10.0757  113.6680 H           1 LSW       0.0557
     52 H16        37.0678   19.8980  106.7330 H           1 LSW       0.0541
     53 H17        41.8097   19.0605  107.5575 H           1 LSW       0.0540
     54 H18        38.2738   16.2784  109.7970 H           1 LSW       0.0795
     55 H19        47.4886   15.9222  113.3870 H           1 LSW       0.0813
     56 H20        46.2675   17.2079  113.3638 H           1 LSW       0.0813
     57 H21        46.8694   16.0461  111.1131 H           1 LSW       0.0317
     58 H22        45.1696   16.3483  111.4775 H           1 LSW       0.0317
     59 H23        44.9273   13.9859  112.2501 H           1 LSW       0.0270
     60 H24        46.5916   13.6528  111.7969 H           1 LSW       0.0270
     61 H25        40.3955    9.8157  110.9166 H           1 LSW       0.0429
     62 H26        41.4235   10.9439  111.7848 H           1 LSW       0.0429
     63 H27        46.1130   13.4796  109.5545 H           1 LSW       0.0346
     64 H28        45.0711   14.8645  109.5612 H           1 LSW       0.0346
     65 H29        40.8495   16.3561  110.4597 H           1 LSW       0.0390
     66 H30        41.9042   17.4525  109.5879 H           1 LSW       0.0390
     67 H31        42.8228   15.1473  110.1810 H           1 LSW       0.1878
     68 H32        43.5149   12.8913  110.9177 H           1 LSW       0.1099
     69 H33        40.7406   14.9004  108.3373 H           1 LSW       0.0741
     70 H34        36.7733   17.8110  108.5382 H           1 LSW       0.2216
@<TRIPOS>BOND
     1     1     3  ar
     2     4     1   1
     3     1    35  ar
     4     2     4   1
     5    33     2   1
     6     4     5   1
     7     5    23   1
     8    20     6   1
     9    27     7  ar
    10    28     8   2
    11    27     9  ar
    12    11    10  ar
    13    12    10  ar
    14    15    11  ar
    15    16    12  ar
    16    14    13  ar
    17    13    17  ar
    18    18    14  ar
    19    29    15  ar
    20    29    16  ar
    21    17    31  ar
    22    32    18  ar
    23    30    19   2
    24    19    36   1
    25    21    20   1
    26    22    21   1
    27    24    22   1
    28    23    29   1
    29    33    24   1
    30    30    25   1
    31    25    34   1
    32    26    28  am
    33    34    26   1
    34    34    27   1
    35    28    33   1
    36    30    32   1
    37    31    32  ar
    38    31    36   1
    39     2    37   1
    40     2    38   1
    41     4    39   1
    42     5    40   1
    43     5    41   1
    44     6    42   1
    45     6    43   1
    46     6    44   1
    47    10    45   1
    48    11    46   1
    49    12    47   1
    50    13    48   1
    51    14    49   1
    52    15    50   1
    53    16    51   1
    54    17    52   1
    55    18    53   1
    56    19    54   1
    57    20    55   1
    58    20    56   1
    59    21    57   1
    60    21    58   1
    61    22    59   1
    62    22    60   1
    63    23    61   1
    64    23    62   1
    65    24    63   1
    66    24    64   1
    67    25    65   1
    68    25    66   1
    69    26    67   1
    70    33    68   1
    71    34    69   1
    72    36    70   1
@<TRIPOS>SUBSTRUCTURE
     1  LSW      1

