@<TRIPOS>MOLECULE
3l3n_ligand_004
    70    72
SMALL
GAST_HUCK
****
This file was generated by PARSER (from files_GN.cpp)

@<TRIPOS>ATOM
      1 C          44.3369    8.4761  108.2304 C.2         1 LSW       0.0847
      2 N          43.8366    7.5463  110.4882 N.4         1 LSW       0.2599
      3 O          45.5994    8.9373  108.4009 O.co2       1 LSW      -0.5643
      4 CA         43.8684    7.2978  109.0116 C.3         1 LSW       0.0340
      5 CB         42.6406    6.5865  108.3172 C.3         1 LSW       0.0122
      6 NAA        41.4142    6.7214  116.6435 N.4         1 LSW       0.2185
      7 OAC        46.6636   12.7514  110.5374 O.co2       1 LSW      -0.5665
      8 OAD        45.3098    9.8322  111.0841 O.2         1 LSW      -0.3908
      9 OAF        44.7196   13.2475  111.7005 O.co2       1 LSW      -0.5665
     10 CAG        37.6756    7.5855  107.6049 C.ar        1 LSW      -0.0687
     11 CAH        38.4811    6.7391  106.8271 C.ar        1 LSW      -0.0686
     12 CAI        38.0712    7.9274  108.9107 C.ar        1 LSW      -0.0686
     13 CAJ        38.8873   15.2698  109.2214 C.ar        1 LSW      -0.0768
     14 CAK        39.1791   14.1206  108.4497 C.ar        1 LSW      -0.0792
     15 CAL        39.6817    6.2289  107.3553 C.ar        1 LSW      -0.0603
     16 CAM        39.2810    7.4293  109.4325 C.ar        1 LSW      -0.0603
     17 CAN        39.9108   15.9324  109.9306 C.ar        1 LSW      -0.0443
     18 CAO        40.4937   13.6052  108.4008 C.ar        1 LSW      -0.0747
     19 CAP        43.3696   15.0988  110.0046 C.2         1 LSW       0.0166
     20 CAQ        41.5096    6.1034  115.3120 C.3         1 LSW      -0.0354
     21 CAR        42.6401    6.7441  114.4543 C.3         1 LSW      -0.0123
     22 CAS        42.1440    7.5841  113.2369 C.3         1 LSW      -0.0410
     23 CAT        41.4247    6.0938  109.1711 C.3         1 LSW      -0.0125
     24 CAU        43.2274    8.5584  112.6762 C.3         1 LSW       0.0081
     25 CAW        43.7209   12.9759  108.6227 C.3         1 LSW      -0.0013
     26 NAX        43.6659   11.0049  110.1714 N.am        1 LSW      -0.2657
     27 CBB        45.3112   12.7422  110.5953 C.2         1 LSW       0.0613
     28 CBC        44.1187    9.9265  110.8153 C.2         1 LSW       0.2263
     29 CBD        40.1091    6.5836  108.6585 C.ar        1 LSW      -0.0427
     30 CBE        42.8820   14.0339  109.2402 C.2         1 LSW      -0.0424
     31 CBF        41.2175   15.4230  109.8480 C.ar        1 LSW       0.0603
     32 CBG        41.5113   14.2693  109.1124 C.ar        1 LSW      -0.0214
     33 CBI        43.2651    8.7770  111.1244 C.3         1 LSW       0.0683
     34 CBJ        44.5010   12.0233  109.5831 C.3         1 LSW       0.0987
     35 OXT        43.4413    9.3678  107.7391 O.co2       1 LSW      -0.5643
     36 NXZ        42.3557   15.8940  110.3753 N.pl3       1 LSW      -0.2891
     37 H1         44.8142    7.5120  110.8024 H           1 LSW       0.2052
     38 H2         43.3756    6.7420  110.9122 H           1 LSW       0.2052
     39 H3         44.6926    6.5748  108.9229 H           1 LSW       0.1027
     40 H4         43.0327    5.7136  107.7803 H           1 LSW       0.0361
     41 H5         42.2518    7.2203  107.5154 H           1 LSW       0.0361
     42 H6         40.4803    6.5639  117.0303 H           1 LSW       0.1994
     43 H7         41.5767    7.7289  116.5696 H           1 LSW       0.1994
     44 H8         42.1182    6.3159  117.2616 H           1 LSW       0.1994
     45 H9         36.8063    7.9563  107.2209 H           1 LSW       0.0559
     46 H10        38.1974    6.4848  105.8822 H           1 LSW       0.0599
     47 H11        37.4812    8.5387  109.4786 H           1 LSW       0.0599
     48 H12        37.9317   15.6334  109.2481 H           1 LSW       0.0530
     49 H13        38.4308   13.6609  107.9235 H           1 LSW       0.0510
     50 H14        40.2597    5.6140  106.7783 H           1 LSW       0.0557
     51 H15        39.5495    7.6929  110.3833 H           1 LSW       0.0557
     52 H16        39.7094   16.7649  110.4863 H           1 LSW       0.0541
     53 H17        40.6942   12.7703  107.8467 H           1 LSW       0.0540
     54 H18        44.3484   15.2659  110.2550 H           1 LSW       0.0795
     55 H19        40.5382    6.1921  114.8192 H           1 LSW       0.0813
     56 H20        41.7063    5.0390  115.4615 H           1 LSW       0.0813
     57 H21        43.2799    5.9453  114.0682 H           1 LSW       0.0317
     58 H22        43.2687    7.3687  115.0932 H           1 LSW       0.0317
     59 H23        41.2716    8.1707  113.5313 H           1 LSW       0.0270
     60 H24        41.8181    6.8868  112.4695 H           1 LSW       0.0270
     61 H25        41.5500    6.3855  110.2081 H           1 LSW       0.0429
     62 H26        41.3999    4.9991  109.1678 H           1 LSW       0.0429
     63 H27        44.2162    8.2090  112.9808 H           1 LSW       0.0346
     64 H28        43.0687    9.5216  113.1758 H           1 LSW       0.0346
     65 H29        44.4437   13.4815  107.9786 H           1 LSW       0.0390
     66 H30        43.1089   12.3593  107.9645 H           1 LSW       0.0390
     67 H31        42.7124   11.0605  109.9949 H           1 LSW       0.1878
     68 H32        42.2471    8.9429  110.7631 H           1 LSW       0.1099
     69 H33        45.2024   11.4932  108.9363 H           1 LSW       0.0741
     70 H34        42.4601   16.6746  110.9428 H           1 LSW       0.2216
@<TRIPOS>BOND
     1     1     3  ar
     2     4     1   1
     3     1    35  ar
     4     2     4   1
     5    33     2   1
     6     4     5   1
     7     5    23   1
     8    20     6   1
     9    27     7  ar
    10    28     8   2
    11    27     9  ar
    12    11    10  ar
    13    12    10  ar
    14    15    11  ar
    15    16    12  ar
    16    14    13  ar
    17    13    17  ar
    18    18    14  ar
    19    29    15  ar
    20    29    16  ar
    21    17    31  ar
    22    32    18  ar
    23    30    19   2
    24    19    36   1
    25    21    20   1
    26    22    21   1
    27    24    22   1
    28    23    29   1
    29    33    24   1
    30    30    25   1
    31    25    34   1
    32    26    28  am
    33    34    26   1
    34    34    27   1
    35    28    33   1
    36    30    32   1
    37    31    32  ar
    38    31    36   1
    39     2    37   1
    40     2    38   1
    41     4    39   1
    42     5    40   1
    43     5    41   1
    44     6    42   1
    45     6    43   1
    46     6    44   1
    47    10    45   1
    48    11    46   1
    49    12    47   1
    50    13    48   1
    51    14    49   1
    52    15    50   1
    53    16    51   1
    54    17    52   1
    55    18    53   1
    56    19    54   1
    57    20    55   1
    58    20    56   1
    59    21    57   1
    60    21    58   1
    61    22    59   1
    62    22    60   1
    63    23    61   1
    64    23    62   1
    65    24    63   1
    66    24    64   1
    67    25    65   1
    68    25    66   1
    69    26    67   1
    70    33    68   1
    71    34    69   1
    72    36    70   1
@<TRIPOS>SUBSTRUCTURE
     1  LSW      1

