@<TRIPOS>MOLECULE
3l3n_ligand_084
    70    72
SMALL
GAST_HUCK
****
This file was generated by PARSER (from files_GN.cpp)

@<TRIPOS>ATOM
      1 C          41.5912   11.0319  106.0485 C.2         1 LSW       0.0847
      2 N          41.4363   13.5019  106.2650 N.4         1 LSW       0.2599
      3 O          41.2397    9.7660  106.3801 O.co2       1 LSW      -0.5643
      4 CA         40.8277   12.1798  106.5933 C.3         1 LSW       0.0340
      5 CB         39.3414   12.1765  106.1103 C.3         1 LSW       0.0122
      6 NAA        42.2837   19.5979  104.6819 N.4         1 LSW       0.2185
      7 OAC        40.8551   11.2316  110.1126 O.co2       1 LSW      -0.5665
      8 OAD        40.6695   14.3948  108.8999 O.2         1 LSW      -0.3908
      9 OAF        40.1152   12.5565  111.8698 O.co2       1 LSW      -0.5665
     10 CAG        35.1260   11.1098  103.4978 C.ar        1 LSW      -0.0687
     11 CAH        35.3425   12.3124  104.1916 C.ar        1 LSW      -0.0686
     12 CAI        36.2187   10.3025  103.1331 C.ar        1 LSW      -0.0686
     13 CAJ        39.0888   17.9993  113.6047 C.ar        1 LSW      -0.0768
     14 CAK        39.3725   16.8030  114.2996 C.ar        1 LSW      -0.0792
     15 CAL        36.6519   12.7075  104.5249 C.ar        1 LSW      -0.0603
     16 CAM        37.5278   10.6973  103.4644 C.ar        1 LSW      -0.0603
     17 CAN        39.6726   18.2544  112.3440 C.ar        1 LSW      -0.0443
     18 CAO        40.2760   15.8624  113.7644 C.ar        1 LSW      -0.0747
     19 CAP        42.0289   16.2337  110.6139 C.2         1 LSW       0.0166
     20 CAQ        42.1573   18.5558  105.7085 C.3         1 LSW      -0.0354
     21 CAR        43.5206   17.8886  106.0286 C.3         1 LSW      -0.0123
     22 CAS        43.4139   16.6760  106.9975 C.3         1 LSW      -0.0410
     23 CAT        39.1395   12.2973  104.5699 C.3         1 LSW      -0.0125
     24 CAU        42.1918   15.7502  106.7257 C.3         1 LSW       0.0081
     25 CAW        42.4873   14.1447  111.9670 C.3         1 LSW      -0.0013
     26 NAX        42.6183   13.5167  109.5217 N.am        1 LSW      -0.2657
     27 CBB        41.0589   12.2845  110.9380 C.2         1 LSW       0.0613
     28 CBC        41.8249   14.0919  108.6249 C.2         1 LSW       0.2263
     29 CBD        37.7600   11.9036  104.1667 C.ar        1 LSW      -0.0427
     30 CBE        41.7940   15.4290  111.7266 C.2         1 LSW      -0.0424
     31 CBF        40.5661   17.3036  111.8194 C.ar        1 LSW       0.0603
     32 CBG        40.8737   16.1258  112.5135 C.ar        1 LSW      -0.0214
     33 CBI        42.2673   14.2656  107.2364 C.3         1 LSW       0.0683
     34 CBJ        42.3143   13.0599  110.8581 C.3         1 LSW       0.0987
     35 OXT        42.6297   11.1988  105.1963 O.co2       1 LSW      -0.5643
     36 NXZ        41.2653   17.3323  110.6771 N.pl3       1 LSW      -0.2891
     37 H1         40.6800   14.1274  105.9681 H           1 LSW       0.2052
     38 H2         42.0505   13.3619  105.4530 H           1 LSW       0.2052
     39 H3         40.8090   12.0681  107.6846 H           1 LSW       0.1027
     40 H4         38.8331   13.0223  106.5905 H           1 LSW       0.0361
     41 H5         38.8462   11.2622  106.4611 H           1 LSW       0.0361
     42 H6         41.3446   19.9142  104.4277 H           1 LSW       0.1994
     43 H7         42.7491   19.2246  103.8516 H           1 LSW       0.1994
     44 H8         42.8086   20.3961  105.0476 H           1 LSW       0.1994
     45 H9         34.1743   10.8185  103.2624 H           1 LSW       0.0559
     46 H10        34.5482   12.8973  104.4610 H           1 LSW       0.0599
     47 H11        36.0624    9.4240  102.6345 H           1 LSW       0.0599
     48 H12        38.4507   18.6850  114.0149 H           1 LSW       0.0530
     49 H13        38.9297   16.6210  115.2069 H           1 LSW       0.0510
     50 H14        36.7902   13.5830  105.0376 H           1 LSW       0.0557
     51 H15        38.3098   10.0918  103.2024 H           1 LSW       0.0557
     52 H16        39.4685   19.1229  111.8465 H           1 LSW       0.0541
     53 H17        40.5066   15.0073  114.2769 H           1 LSW       0.0540
     54 H18        42.7096   16.0220  109.8880 H           1 LSW       0.0795
     55 H19        41.4588   17.8016  105.3398 H           1 LSW       0.0813
     56 H20        41.7464   19.0110  106.6152 H           1 LSW       0.0813
     57 H21        44.1796   18.6360  106.4807 H           1 LSW       0.0317
     58 H22        43.9849   17.5667  105.0889 H           1 LSW       0.0317
     59 H23        43.3335   17.0727  108.0063 H           1 LSW       0.0270
     60 H24        44.3390   16.0950  106.9343 H           1 LSW       0.0270
     61 H25        39.8783   11.6653  104.0664 H           1 LSW       0.0429
     62 H26        39.3236   13.3281  104.2433 H           1 LSW       0.0429
     63 H27        42.0362   15.7522  105.6388 H           1 LSW       0.0346
     64 H28        41.3017   16.2137  107.1555 H           1 LSW       0.0346
     65 H29        42.1683   13.7262  112.9169 H           1 LSW       0.0390
     66 H30        43.5523   14.3614  112.0743 H           1 LSW       0.0390
     67 H31        43.5033   13.2825  109.1908 H           1 LSW       0.1878
     68 H32        43.2948   13.9088  107.1186 H           1 LSW       0.1099
     69 H33        43.1024   12.3328  111.0663 H           1 LSW       0.0741
     70 H34        41.2148   18.0242  109.9988 H           1 LSW       0.2216
@<TRIPOS>BOND
     1     1     3  ar
     2     4     1   1
     3     1    35  ar
     4     2     4   1
     5    33     2   1
     6     4     5   1
     7     5    23   1
     8    20     6   1
     9    27     7  ar
    10    28     8   2
    11    27     9  ar
    12    11    10  ar
    13    12    10  ar
    14    15    11  ar
    15    16    12  ar
    16    14    13  ar
    17    13    17  ar
    18    18    14  ar
    19    29    15  ar
    20    29    16  ar
    21    17    31  ar
    22    32    18  ar
    23    30    19   2
    24    19    36   1
    25    21    20   1
    26    22    21   1
    27    24    22   1
    28    23    29   1
    29    33    24   1
    30    30    25   1
    31    25    34   1
    32    26    28  am
    33    34    26   1
    34    34    27   1
    35    28    33   1
    36    30    32   1
    37    31    32  ar
    38    31    36   1
    39     2    37   1
    40     2    38   1
    41     4    39   1
    42     5    40   1
    43     5    41   1
    44     6    42   1
    45     6    43   1
    46     6    44   1
    47    10    45   1
    48    11    46   1
    49    12    47   1
    50    13    48   1
    51    14    49   1
    52    15    50   1
    53    16    51   1
    54    17    52   1
    55    18    53   1
    56    19    54   1
    57    20    55   1
    58    20    56   1
    59    21    57   1
    60    21    58   1
    61    22    59   1
    62    22    60   1
    63    23    61   1
    64    23    62   1
    65    24    63   1
    66    24    64   1
    67    25    65   1
    68    25    66   1
    69    26    67   1
    70    33    68   1
    71    34    69   1
    72    36    70   1
@<TRIPOS>SUBSTRUCTURE
     1  LSW      1

