@<TRIPOS>MOLECULE
3l3n_ligand_040
    70    72
SMALL
GAST_HUCK
****
This file was generated by PARSER (from files_GN.cpp)

@<TRIPOS>ATOM
      1 C          46.4143   13.4031  110.6632 C.2         1 LSW       0.0847
      2 N          44.3005   14.4981  111.5297 N.4         1 LSW       0.2599
      3 O          47.7680   13.3482  110.5457 O.co2       1 LSW      -0.5643
      4 CA         45.7779   14.5961  111.3070 C.3         1 LSW       0.0340
      5 CB         46.5606   14.9784  112.6146 C.3         1 LSW       0.0122
      6 NAA        41.2981   15.2468  114.4605 N.4         1 LSW       0.2185
      7 OAC        45.8678   17.3736  108.3476 O.co2       1 LSW      -0.5665
      8 OAD        43.5746   13.6600  108.2303 O.2         1 LSW      -0.3908
      9 OAF        45.2420   17.5584  106.1191 O.co2       1 LSW      -0.5665
     10 CAG        47.9376   16.6980  117.3560 C.ar        1 LSW      -0.0687
     11 CAH        46.8458   17.4565  116.8962 C.ar        1 LSW      -0.0686
     12 CAI        48.3006   15.5166  116.6823 C.ar        1 LSW      -0.0686
     13 CAJ        38.8509   13.4497  107.9979 C.ar        1 LSW      -0.0768
     14 CAK        40.0055   13.4194  107.1842 C.ar        1 LSW      -0.0792
     15 CAL        46.1372   17.0481  115.7512 C.ar        1 LSW      -0.0603
     16 CAM        47.5770   15.1051  115.5473 C.ar        1 LSW      -0.0603
     17 CAN        38.5409   14.5981  108.7539 C.ar        1 LSW      -0.0443
     18 CAO        40.8545   14.5418  107.1075 C.ar        1 LSW      -0.0747
     19 CAP        40.4155   17.6151  108.9770 C.2         1 LSW       0.0166
     20 CAQ        40.2066   15.2133  113.4724 C.3         1 LSW      -0.0354
     21 CAR        40.0631   13.8247  112.7944 C.3         1 LSW      -0.0123
     22 CAS        41.3113   13.3100  112.0251 C.3         1 LSW      -0.0410
     23 CAT        45.7199   15.4260  113.8496 C.3         1 LSW      -0.0125
     24 CAU        41.8785   14.2779  110.9438 C.3         1 LSW       0.0081
     25 CAW        42.4797   17.3783  107.4846 C.3         1 LSW      -0.0013
     26 NAX        43.7088   15.7727  108.9270 N.am        1 LSW      -0.2657
     27 CBB        44.9663   17.1143  107.3694 C.2         1 LSW       0.0613
     28 CBC        43.5805   14.4698  109.1549 C.2         1 LSW       0.2263
     29 CBD        46.5012   15.8719  115.0406 C.ar        1 LSW      -0.0427
     30 CBE        41.1983   16.9042  108.0639 C.2         1 LSW      -0.0424
     31 CBF        39.4054   15.7036  108.6798 C.ar        1 LSW       0.0603
     32 CBG        40.5478   15.6846  107.8737 C.ar        1 LSW      -0.0214
     33 CBI        43.3488   13.9688  110.5085 C.3         1 LSW       0.0683
     34 CBJ        43.6922   16.4095  107.6349 C.3         1 LSW       0.0987
     35 OXT        45.7079   12.3165  110.2499 O.co2       1 LSW      -0.5643
     36 NXZ        39.3491   16.8763  109.3258 N.pl3       1 LSW      -0.2891
     37 H1         43.9879   15.4452  111.7474 H           1 LSW       0.2052
     38 H2         44.1678   13.9330  112.3658 H           1 LSW       0.2052
     39 H3         45.9093   15.4142  110.5949 H           1 LSW       0.1027
     40 H4         47.2570   15.7804  112.3703 H           1 LSW       0.0361
     41 H5         47.1621   14.1289  112.9332 H           1 LSW       0.0361
     42 H6         41.5355   16.2135  114.6868 H           1 LSW       0.1994
     43 H7         42.1329   14.7993  114.0782 H           1 LSW       0.1994
     44 H8         41.0106   14.7565  115.3132 H           1 LSW       0.1994
     45 H9         48.4556   17.0019  118.1837 H           1 LSW       0.0559
     46 H10        46.5682   18.3040  117.4023 H           1 LSW       0.0599
     47 H11        49.0872   14.9572  117.0179 H           1 LSW       0.0599
     48 H12        38.2380   12.6339  108.0335 H           1 LSW       0.0530
     49 H13        40.2277   12.5781  106.6455 H           1 LSW       0.0510
     50 H14        45.3387   17.6107  115.4521 H           1 LSW       0.0557
     51 H15        47.8539   14.2318  115.0985 H           1 LSW       0.0557
     52 H16        37.7096   14.6272  109.3483 H           1 LSW       0.0541
     53 H17        41.6833   14.5154  106.5107 H           1 LSW       0.0540
     54 H18        40.6223   18.5442  109.3464 H           1 LSW       0.0795
     55 H19        40.3916   15.9855  112.7231 H           1 LSW       0.0813
     56 H20        39.2750   15.4638  113.9970 H           1 LSW       0.0813
     57 H21        39.2047   13.8556  112.1183 H           1 LSW       0.0317
     58 H22        39.8282   13.0965  113.5777 H           1 LSW       0.0317
     59 H23        41.0420   12.3756  111.5300 H           1 LSW       0.0270
     60 H24        42.0882   13.0668  112.7450 H           1 LSW       0.0270
     61 H25        45.0875   14.5987  114.1762 H           1 LSW       0.0429
     62 H26        45.0592   16.2312  113.5213 H           1 LSW       0.0429
     63 H27        41.8307   15.3126  111.3033 H           1 LSW       0.0346
     64 H28        41.2179   14.1888  110.0751 H           1 LSW       0.0346
     65 H29        42.7247   18.3409  107.9503 H           1 LSW       0.0390
     66 H30        42.3120   17.5748  106.4185 H           1 LSW       0.0390
     67 H31        43.7414   16.3587  109.7023 H           1 LSW       0.1878
     68 H32        43.4578   12.8731  110.5010 H           1 LSW       0.1099
     69 H33        43.6081   15.6658  106.8453 H           1 LSW       0.0741
     70 H34        38.6596   17.1411  109.9562 H           1 LSW       0.2216
@<TRIPOS>BOND
     1     1     3  ar
     2     4     1   1
     3     1    35  ar
     4     2     4   1
     5    33     2   1
     6     4     5   1
     7     5    23   1
     8    20     6   1
     9    27     7  ar
    10    28     8   2
    11    27     9  ar
    12    11    10  ar
    13    12    10  ar
    14    15    11  ar
    15    16    12  ar
    16    14    13  ar
    17    13    17  ar
    18    18    14  ar
    19    29    15  ar
    20    29    16  ar
    21    17    31  ar
    22    32    18  ar
    23    30    19   2
    24    19    36   1
    25    21    20   1
    26    22    21   1
    27    24    22   1
    28    23    29   1
    29    33    24   1
    30    30    25   1
    31    25    34   1
    32    26    28  am
    33    34    26   1
    34    34    27   1
    35    28    33   1
    36    30    32   1
    37    31    32  ar
    38    31    36   1
    39     2    37   1
    40     2    38   1
    41     4    39   1
    42     5    40   1
    43     5    41   1
    44     6    42   1
    45     6    43   1
    46     6    44   1
    47    10    45   1
    48    11    46   1
    49    12    47   1
    50    13    48   1
    51    14    49   1
    52    15    50   1
    53    16    51   1
    54    17    52   1
    55    18    53   1
    56    19    54   1
    57    20    55   1
    58    20    56   1
    59    21    57   1
    60    21    58   1
    61    22    59   1
    62    22    60   1
    63    23    61   1
    64    23    62   1
    65    24    63   1
    66    24    64   1
    67    25    65   1
    68    25    66   1
    69    26    67   1
    70    33    68   1
    71    34    69   1
    72    36    70   1
@<TRIPOS>SUBSTRUCTURE
     1  LSW      1

