@<TRIPOS>MOLECULE
3l4u_ligand_021
    47    47
SMALL
GAST_HUCK
****
This file was generated by PARSER (from files_GN.cpp)

@<TRIPOS>ATOM
      1 OAA        -7.4722  -22.2494  -24.4599 O.3         1 DSK      -0.3924
      2 OAB        -1.4972  -15.6520  -17.8632 O.3         1 DSK      -0.3900
      3 OAC        -4.6427  -24.1667  -23.2411 O.3         1 DSK      -0.3869
      4 OAD        -3.2823  -19.1659  -19.6627 O.3         1 DSK      -0.3845
      5 OAE        -1.3448  -13.8497  -20.9995 O.3         1 DSK      -0.3844
      6 OAF        -6.0295  -22.1340  -21.7401 O.3         1 DSK      -0.3865
      7 OAG        -3.2116  -19.2123  -23.1954 O.3         1 DSK      -0.3864
      8 OAH        -2.7152  -21.8524  -23.1485 O.3         1 DSK      -0.3865
      9 OAI         1.8609  -15.5092  -20.8141 O.3         1 DSK      -0.3840
     10 CAJ        -6.5648  -23.3484  -24.4510 C.3         1 DSK       0.0727
     11 CAK        -0.3718  -16.4712  -18.1951 C.3         1 DSK       0.0944
     12 CAL        -1.3599  -18.6732  -21.1096 C.3         1 DSK       0.1385
     13 CAM        -1.0238  -16.0333  -22.0575 C.3         1 DSK       0.1386
     14 CAN        -5.1761  -22.9955  -23.8576 C.3         1 DSK       0.1065
     15 CAO        -2.5625  -19.6230  -20.8237 C.3         1 DSK       0.1280
     16 CAP        -0.3612  -14.7706  -21.4863 C.3         1 DSK       0.1303
     17 CAQ        -5.1863  -21.8072  -22.8431 C.3         1 DSK       0.1114
     18 CAR        -3.5809  -19.8888  -21.9923 C.3         1 DSK       0.1137
     19 CAS        -3.7738  -21.4183  -22.2869 C.3         1 DSK       0.1119
     20 CAT         0.5433  -15.2478  -20.3211 C.3         1 DSK       0.1349
     21 CAU        -0.0968  -16.5365  -19.7207 C.3         1 DSK       0.1711
     22 SAV        -1.6425  -16.9330  -20.6129 S.3         1 DSK       0.0029
     23 H1         -7.1878  -21.6471  -25.1813 H           1 DSK       0.2095
     24 H2         -1.1197  -14.8490  -17.4414 H           1 DSK       0.2096
     25 H3         -4.3986  -24.7616  -23.9828 H           1 DSK       0.2100
     26 H4         -2.6421  -19.2367  -18.9071 H           1 DSK       0.2101
     27 H5         -1.1775  -13.0149  -21.4907 H           1 DSK       0.2101
     28 H6         -6.0478  -21.3336  -21.1695 H           1 DSK       0.2100
     29 H7         -3.7459  -19.6399  -23.9143 H           1 DSK       0.2100
     30 H8         -2.9070  -21.4536  -24.0230 H           1 DSK       0.2100
     31 H9          1.7850  -16.3228  -21.3623 H           1 DSK       0.2101
     32 H10        -6.4413  -23.7070  -25.4774 H           1 DSK       0.0584
     33 H11        -7.0224  -24.1499  -23.8669 H           1 DSK       0.0584
     34 H12        -0.5879  -17.4823  -17.8303 H           1 DSK       0.0608
     35 H13         0.5130  -16.0987  -17.6607 H           1 DSK       0.0608
     36 H14        -1.1091  -18.7373  -22.1705 H           1 DSK       0.0867
     37 H15        -0.5013  -19.0707  -20.5506 H           1 DSK       0.0867
     38 H16        -0.2653  -16.6018  -22.6033 H           1 DSK       0.0867
     39 H17        -1.8455  -15.7835  -22.7286 H           1 DSK       0.0867
     40 H18        -4.5200  -22.7271  -24.6865 H           1 DSK       0.0643
     41 H19        -2.1064  -20.5804  -20.5249 H           1 DSK       0.0667
     42 H20         0.2200  -14.2588  -22.2659 H           1 DSK       0.0668
     43 H21        -5.6248  -20.9446  -23.3452 H           1 DSK       0.0647
     44 H22        -4.5407  -19.4544  -21.6985 H           1 DSK       0.0647
     45 H23        -3.6356  -21.9907  -21.3601 H           1 DSK       0.0647
     46 H24         0.6375  -14.4492  -19.5723 H           1 DSK       0.0672
     47 H25         0.6279  -17.3379  -19.8644 H           1 DSK       0.0928
@<TRIPOS>BOND
     1    10     1   1
     2    11     2   1
     3    14     3   1
     4    15     4   1
     5    16     5   1
     6    17     6   1
     7    18     7   1
     8    19     8   1
     9    20     9   1
    10    14    10   1
    11    21    11   1
    12    12    15   1
    13    22    12   1
    14    16    13   1
    15    13    22   1
    16    17    14   1
    17    15    18   1
    18    20    16   1
    19    19    17   1
    20    18    19   1
    21    20    21   1
    22    21    22   1
    23     1    23   1
    24     2    24   1
    25     3    25   1
    26     4    26   1
    27     5    27   1
    28     6    28   1
    29     7    29   1
    30     8    30   1
    31     9    31   1
    32    10    32   1
    33    10    33   1
    34    11    34   1
    35    11    35   1
    36    12    36   1
    37    12    37   1
    38    13    38   1
    39    13    39   1
    40    14    40   1
    41    15    41   1
    42    16    42   1
    43    17    43   1
    44    18    44   1
    45    19    45   1
    46    20    46   1
    47    21    47   1
@<TRIPOS>SUBSTRUCTURE
     1  DSK     10

