@<TRIPOS>MOLECULE
3l4u_ligand_081
    47    47
SMALL
GAST_HUCK
****
This file was generated by PARSER (from files_GN.cpp)

@<TRIPOS>ATOM
      1 OAA        -4.1904  -13.9680  -18.9449 O.3         1 DSK      -0.3924
      2 OAB        -0.7607  -25.5274  -18.3788 O.3         1 DSK      -0.3900
      3 OAC        -1.7150  -14.4960  -19.7713 O.3         1 DSK      -0.3869
      4 OAD        -1.0852  -21.3938  -20.8143 O.3         1 DSK      -0.3845
      5 OAE        -1.7672  -22.9259  -14.0200 O.3         1 DSK      -0.3844
      6 OAF        -0.4156  -16.8774  -19.8909 O.3         1 DSK      -0.3865
      7 OAG        -3.2784  -20.3693  -19.2507 O.3         1 DSK      -0.3864
      8 OAH        -3.2639  -18.0945  -18.0123 O.3         1 DSK      -0.3865
      9 OAI         0.5285  -24.5550  -15.0417 O.3         1 DSK      -0.3840
     10 CAJ        -3.8293  -15.3504  -18.9676 C.3         1 DSK       0.0727
     11 CAK         0.3615  -24.6690  -18.1816 C.3         1 DSK       0.0944
     12 CAL        -0.2701  -21.0437  -18.5583 C.3         1 DSK       0.1385
     13 CAM        -1.7448  -21.8329  -16.2474 C.3         1 DSK       0.1386
     14 CAN        -2.2858  -15.5691  -19.0130 C.3         1 DSK       0.1065
     15 CAO        -0.8827  -20.3684  -19.8250 C.3         1 DSK       0.1280
     16 CAP        -0.9707  -22.6206  -15.1664 C.3         1 DSK       0.1303
     17 CAQ        -1.8263  -16.9334  -19.6353 C.3         1 DSK       0.1114
     18 CAR        -2.2006  -19.5366  -19.6835 C.3         1 DSK       0.1137
     19 CAS        -2.0921  -18.2400  -18.8131 C.3         1 DSK       0.1119
     20 CAT        -0.4815  -23.9230  -15.8292 C.3         1 DSK       0.1349
     21 CAU         0.0442  -23.4953  -17.2185 C.3         1 DSK       0.1711
     22 SAV        -1.2546  -22.4233  -17.8926 S.3         1 DSK       0.0029
     23 H1         -3.5142  -13.5309  -18.3874 H           1 DSK       0.2095
     24 H2         -0.4445  -26.2203  -19.0003 H           1 DSK       0.2096
     25 H3         -2.2083  -14.4851  -20.6229 H           1 DSK       0.2100
     26 H4         -0.7720  -21.0047  -21.6668 H           1 DSK       0.2101
     27 H5         -2.0652  -22.0656  -13.6512 H           1 DSK       0.2101
     28 H6         -0.3044  -16.2212  -20.6169 H           1 DSK       0.2100
     29 H7         -2.9271  -20.8809  -18.4892 H           1 DSK       0.2100
     30 H8         -3.4014  -18.9831  -17.5876 H           1 DSK       0.2100
     31 H9          0.1621  -25.4387  -14.8178 H           1 DSK       0.2101
     32 H10        -4.3081  -15.8041  -19.8382 H           1 DSK       0.0584
     33 H11        -4.2498  -15.8031  -18.0670 H           1 DSK       0.0584
     34 H12         0.6672  -24.2696  -19.1537 H           1 DSK       0.0608
     35 H13         1.1899  -25.2624  -17.7846 H           1 DSK       0.0608
     36 H14        -0.0842  -20.2935  -17.7955 H           1 DSK       0.0867
     37 H15         0.7042  -21.4341  -18.8569 H           1 DSK       0.0867
     38 H16        -1.5804  -20.7650  -16.1258 H           1 DSK       0.0867
     39 H17        -2.8123  -22.0221  -16.1404 H           1 DSK       0.0867
     40 H18        -1.8952  -15.4858  -17.9978 H           1 DSK       0.0643
     41 H19        -0.1084  -19.6974  -20.2261 H           1 DSK       0.0667
     42 H20        -0.1046  -22.0367  -14.8374 H           1 DSK       0.0668
     43 H21        -2.3040  -17.0049  -20.6213 H           1 DSK       0.0647
     44 H22        -2.4997  -19.2434  -20.6964 H           1 DSK       0.0647
     45 H23        -1.2901  -18.3627  -18.0871 H           1 DSK       0.0647
     46 H24        -1.3240  -24.6162  -15.9349 H           1 DSK       0.0672
     47 H25         0.9644  -22.9231  -17.0711 H           1 DSK       0.0928
@<TRIPOS>BOND
     1    10     1   1
     2    11     2   1
     3    14     3   1
     4    15     4   1
     5    16     5   1
     6    17     6   1
     7    18     7   1
     8    19     8   1
     9    20     9   1
    10    14    10   1
    11    21    11   1
    12    12    15   1
    13    22    12   1
    14    16    13   1
    15    13    22   1
    16    17    14   1
    17    15    18   1
    18    20    16   1
    19    19    17   1
    20    18    19   1
    21    20    21   1
    22    21    22   1
    23     1    23   1
    24     2    24   1
    25     3    25   1
    26     4    26   1
    27     5    27   1
    28     6    28   1
    29     7    29   1
    30     8    30   1
    31     9    31   1
    32    10    32   1
    33    10    33   1
    34    11    34   1
    35    11    35   1
    36    12    36   1
    37    12    37   1
    38    13    38   1
    39    13    39   1
    40    14    40   1
    41    15    41   1
    42    16    42   1
    43    17    43   1
    44    18    44   1
    45    19    45   1
    46    20    46   1
    47    21    47   1
@<TRIPOS>SUBSTRUCTURE
     1  DSK     10

