@<TRIPOS>MOLECULE
3l4u_ligand_065
    47    47
SMALL
GAST_HUCK
****
This file was generated by PARSER (from files_GN.cpp)

@<TRIPOS>ATOM
      1 OAA        -1.6557  -15.5284  -17.7598 O.3         1 DSK      -0.3924
      2 OAB        -5.1479  -22.9525  -19.9315 O.3         1 DSK      -0.3900
      3 OAC         0.2940  -13.9822  -19.2690 O.3         1 DSK      -0.3869
      4 OAD        -1.5715  -18.1505  -19.4641 O.3         1 DSK      -0.3845
      5 OAE        -0.8498  -22.4767  -22.8128 O.3         1 DSK      -0.3844
      6 OAF         0.3400  -17.5200  -20.3660 O.3         1 DSK      -0.3865
      7 OAG        -3.2541  -15.2986  -19.8875 O.3         1 DSK      -0.3864
      8 OAH        -1.0666  -16.0777  -22.5825 O.3         1 DSK      -0.3865
      9 OAI        -3.7329  -22.7918  -23.6034 O.3         1 DSK      -0.3840
     10 CAJ        -0.2762  -15.8733  -17.8183 C.3         1 DSK       0.0727
     11 CAK        -5.4750  -22.0580  -20.9918 C.3         1 DSK       0.0944
     12 CAL        -3.3273  -18.7763  -21.0802 C.3         1 DSK       0.1385
     13 CAM        -1.6840  -21.0079  -21.0295 C.3         1 DSK       0.1386
     14 CAN         0.4390  -15.3923  -19.1137 C.3         1 DSK       0.1065
     15 CAO        -2.7713  -17.7036  -20.0878 C.3         1 DSK       0.1280
     16 CAP        -1.9192  -21.6106  -22.4302 C.3         1 DSK       0.1303
     17 CAQ         0.1134  -16.1126  -20.4660 C.3         1 DSK       0.1114
     18 CAR        -2.6359  -16.2852  -20.7251 C.3         1 DSK       0.1137
     19 CAS        -1.2245  -15.7656  -21.1912 C.3         1 DSK       0.1119
     20 CAT        -3.2580  -22.3653  -22.3251 C.3         1 DSK       0.1349
     21 CAU        -4.2360  -21.3805  -21.6308 C.3         1 DSK       0.1711
     22 SAV        -3.2826  -20.4572  -20.3793 S.3         1 DSK       0.0029
     23 H1         -1.6602  -14.5935  -17.4593 H           1 DSK       0.2095
     24 H2         -4.8548  -23.7840  -20.3663 H           1 DSK       0.2096
     25 H3          0.0978  -13.6529  -18.3687 H           1 DSK       0.2100
     26 H4         -1.8615  -18.8290  -18.8189 H           1 DSK       0.2101
     27 H5         -0.0915  -21.8681  -22.9274 H           1 DSK       0.2101
     28 H6          0.5612  -17.8047  -21.2726 H           1 DSK       0.2100
     29 H7         -3.3705  -14.5276  -20.4762 H           1 DSK       0.2100
     30 H8         -1.6402  -15.4220  -23.0280 H           1 DSK       0.2100
     31 H9         -3.9312  -21.9664  -24.0963 H           1 DSK       0.2101
     32 H10        -0.1815  -16.9523  -17.6982 H           1 DSK       0.0584
     33 H11         0.2129  -15.4040  -16.9606 H           1 DSK       0.0584
     34 H12        -6.1379  -21.2906  -20.5878 H           1 DSK       0.0608
     35 H13        -6.0293  -22.6107  -21.7534 H           1 DSK       0.0608
     36 H14        -2.7791  -18.7311  -22.0234 H           1 DSK       0.0867
     37 H15        -4.3713  -18.5242  -21.2928 H           1 DSK       0.0867
     38 H16        -0.9556  -20.1968  -21.0627 H           1 DSK       0.0867
     39 H17        -1.3025  -21.7754  -20.3529 H           1 DSK       0.0867
     40 H18         1.5002  -15.5761  -18.9390 H           1 DSK       0.0643
     41 H19        -3.5022  -17.6200  -19.2610 H           1 DSK       0.0667
     42 H20        -2.0048  -20.8116  -23.1729 H           1 DSK       0.0668
     43 H21         0.8948  -15.7623  -21.1571 H           1 DSK       0.0647
     44 H22        -3.2754  -16.2784  -21.6206 H           1 DSK       0.0647
     45 H23        -1.2826  -14.6726  -21.1670 H           1 DSK       0.0647
     46 H24        -3.1094  -23.2584  -21.7052 H           1 DSK       0.0672
     47 H25        -4.6112  -20.6890  -22.3940 H           1 DSK       0.0928
@<TRIPOS>BOND
     1    10     1   1
     2    11     2   1
     3    14     3   1
     4    15     4   1
     5    16     5   1
     6    17     6   1
     7    18     7   1
     8    19     8   1
     9    20     9   1
    10    14    10   1
    11    21    11   1
    12    12    15   1
    13    22    12   1
    14    16    13   1
    15    13    22   1
    16    17    14   1
    17    15    18   1
    18    20    16   1
    19    19    17   1
    20    18    19   1
    21    20    21   1
    22    21    22   1
    23     1    23   1
    24     2    24   1
    25     3    25   1
    26     4    26   1
    27     5    27   1
    28     6    28   1
    29     7    29   1
    30     8    30   1
    31     9    31   1
    32    10    32   1
    33    10    33   1
    34    11    34   1
    35    11    35   1
    36    12    36   1
    37    12    37   1
    38    13    38   1
    39    13    39   1
    40    14    40   1
    41    15    41   1
    42    16    42   1
    43    17    43   1
    44    18    44   1
    45    19    45   1
    46    20    46   1
    47    21    47   1
@<TRIPOS>SUBSTRUCTURE
     1  DSK     10

