@<TRIPOS>MOLECULE
3l4u_ligand_003
    47    47
SMALL
GAST_HUCK
****
This file was generated by PARSER (from files_GN.cpp)

@<TRIPOS>ATOM
      1 OAA        -6.5255  -24.6787  -20.9290 O.3         1 DSK      -0.3924
      2 OAB        -3.8030  -14.5309  -18.4924 O.3         1 DSK      -0.3900
      3 OAC        -6.2113  -21.1906  -20.3175 O.3         1 DSK      -0.3869
      4 OAD        -1.2021  -20.6512  -20.8346 O.3         1 DSK      -0.3845
      5 OAE         0.7987  -15.1960  -20.4191 O.3         1 DSK      -0.3844
      6 OAF        -5.8213  -20.9170  -22.9742 O.3         1 DSK      -0.3865
      7 OAG        -3.2044  -19.2340  -23.2556 O.3         1 DSK      -0.3864
      8 OAH        -2.7234  -21.9172  -23.1968 O.3         1 DSK      -0.3865
      9 OAI         0.1560  -15.8346  -17.5468 O.3         1 DSK      -0.3840
     10 CAJ        -6.9099  -23.3332  -21.2365 C.3         1 DSK       0.0727
     11 CAK        -3.2338  -15.5388  -17.6566 C.3         1 DSK       0.0944
     12 CAL        -2.2256  -18.7336  -19.8436 C.3         1 DSK       0.1385
     13 CAM        -1.3672  -16.2328  -20.8818 C.3         1 DSK       0.1386
     14 CAN        -5.7342  -22.3494  -21.0096 C.3         1 DSK       0.1065
     15 CAO        -2.0008  -19.5072  -21.1762 C.3         1 DSK       0.1280
     16 CAP        -0.1846  -16.0942  -19.9094 C.3         1 DSK       0.1303
     17 CAQ        -5.0161  -21.9042  -22.3313 C.3         1 DSK       0.1114
     18 CAR        -3.3044  -19.8801  -21.9756 C.3         1 DSK       0.1137
     19 CAS        -3.5448  -21.4195  -22.1408 C.3         1 DSK       0.1119
     20 CAT        -0.7878  -15.6072  -18.5902 C.3         1 DSK       0.1349
     21 CAU        -2.1321  -16.3677  -18.3697 C.3         1 DSK       0.1711
     22 SAV        -2.7462  -16.9911  -19.9735 S.3         1 DSK       0.0029
     23 H1         -7.3405  -25.2136  -21.0706 H           1 DSK       0.2095
     24 H2         -3.3260  -13.7112  -18.2549 H           1 DSK       0.2096
     25 H3         -6.5141  -21.5058  -19.4397 H           1 DSK       0.2100
     26 H4         -0.5973  -20.7584  -21.6073 H           1 DSK       0.2101
     27 H5          1.4047  -15.0398  -19.6626 H           1 DSK       0.2101
     28 H6         -5.5090  -20.8960  -23.8957 H           1 DSK       0.2100
     29 H7         -3.8059  -19.7085  -23.8747 H           1 DSK       0.2100
     30 H8         -3.0123  -21.4911  -24.0262 H           1 DSK       0.2100
     31 H9          0.2984  -14.9570  -17.1323 H           1 DSK       0.2101
     32 H10        -7.7523  -23.0739  -20.5863 H           1 DSK       0.0584
     33 H11        -7.2526  -23.3023  -22.2729 H           1 DSK       0.0584
     34 H12        -4.0408  -16.1977  -17.3284 H           1 DSK       0.0608
     35 H13        -2.8186  -15.0551  -16.7681 H           1 DSK       0.0608
     36 H14        -1.2961  -18.7910  -19.2631 H           1 DSK       0.0867
     37 H15        -2.9844  -19.2552  -19.2666 H           1 DSK       0.0867
     38 H16        -1.0890  -16.8040  -21.7758 H           1 DSK       0.0867
     39 H17        -1.6796  -15.2364  -21.2156 H           1 DSK       0.0867
     40 H18        -5.0177  -22.8484  -20.3441 H           1 DSK       0.0643
     41 H19        -1.3520  -18.8798  -21.8111 H           1 DSK       0.0667
     42 H20         0.2898  -17.0687  -19.7774 H           1 DSK       0.0668
     43 H21        -5.0002  -22.7779  -22.9938 H           1 DSK       0.0647
     44 H22        -4.1669  -19.4538  -21.4699 H           1 DSK       0.0647
     45 H23        -3.1848  -21.9246  -21.2422 H           1 DSK       0.0647
     46 H24        -0.9716  -14.5323  -18.6731 H           1 DSK       0.0672
     47 H25        -1.9311  -17.2246  -17.7263 H           1 DSK       0.0928
@<TRIPOS>BOND
     1    10     1   1
     2    11     2   1
     3    14     3   1
     4    15     4   1
     5    16     5   1
     6    17     6   1
     7    18     7   1
     8    19     8   1
     9    20     9   1
    10    14    10   1
    11    21    11   1
    12    12    15   1
    13    22    12   1
    14    16    13   1
    15    13    22   1
    16    17    14   1
    17    15    18   1
    18    20    16   1
    19    19    17   1
    20    18    19   1
    21    20    21   1
    22    21    22   1
    23     1    23   1
    24     2    24   1
    25     3    25   1
    26     4    26   1
    27     5    27   1
    28     6    28   1
    29     7    29   1
    30     8    30   1
    31     9    31   1
    32    10    32   1
    33    10    33   1
    34    11    34   1
    35    11    35   1
    36    12    36   1
    37    12    37   1
    38    13    38   1
    39    13    39   1
    40    14    40   1
    41    15    41   1
    42    16    42   1
    43    17    43   1
    44    18    44   1
    45    19    45   1
    46    20    46   1
    47    21    47   1
@<TRIPOS>SUBSTRUCTURE
     1  DSK     10

