@<TRIPOS>MOLECULE
3l4u_ligand_075
    47    47
SMALL
GAST_HUCK
****
This file was generated by PARSER (from files_GN.cpp)

@<TRIPOS>ATOM
      1 OAA        -4.5082  -21.9237  -22.9682 O.3         1 DSK      -0.3924
      2 OAB        -1.4454  -15.6622  -17.7009 O.3         1 DSK      -0.3900
      3 OAC        -3.4449  -24.4820  -21.7051 O.3         1 DSK      -0.3869
      4 OAD        -3.0330  -21.0170  -18.1445 O.3         1 DSK      -0.3845
      5 OAE        -3.5992  -15.9645  -20.8180 O.3         1 DSK      -0.3844
      6 OAF        -1.0191  -22.6809  -23.8519 O.3         1 DSK      -0.3865
      7 OAG        -3.9588  -21.1406  -20.7036 O.3         1 DSK      -0.3864
      8 OAH        -2.1766  -20.6069  -22.5953 O.3         1 DSK      -0.3865
      9 OAI        -0.0933  -16.0376  -21.7093 O.3         1 DSK      -0.3840
     10 CAJ        -4.1185  -23.1298  -23.6226 C.3         1 DSK       0.0727
     11 CAK        -0.3440  -16.3483  -18.2843 C.3         1 DSK       0.0944
     12 CAL        -1.2009  -19.8401  -19.2633 C.3         1 DSK       0.1385
     13 CAM        -2.5155  -18.1370  -21.0809 C.3         1 DSK       0.1386
     14 CAN        -2.9505  -23.8577  -22.8954 C.3         1 DSK       0.1065
     15 CAO        -2.0406  -21.1569  -19.1693 C.3         1 DSK       0.1280
     16 CAP        -2.4602  -16.6266  -21.3793 C.3         1 DSK       0.1303
     17 CAQ        -1.6648  -22.9984  -22.6047 C.3         1 DSK       0.1114
     18 CAR        -2.6885  -21.7485  -20.4662 C.3         1 DSK       0.1137
     19 CAS        -1.7850  -21.6858  -21.7517 C.3         1 DSK       0.1119
     20 CAT        -1.1420  -16.1251  -20.7397 C.3         1 DSK       0.1349
     21 CAU        -0.7458  -17.0956  -19.5837 C.3         1 DSK       0.1711
     22 SAV        -2.1254  -18.2620  -19.3176 S.3         1 DSK       0.0029
     23 H1         -4.4893  -21.2534  -23.6859 H           1 DSK       0.2095
     24 H2         -1.0532  -14.8745  -17.2596 H           1 DSK       0.2096
     25 H3         -2.7051  -25.0240  -21.3679 H           1 DSK       0.2100
     26 H4         -3.5539  -20.2203  -18.3899 H           1 DSK       0.2101
     27 H5         -4.3719  -16.3687  -21.2669 H           1 DSK       0.2101
     28 H6         -1.6615  -22.1153  -24.3383 H           1 DSK       0.2100
     29 H7         -4.5669  -21.5271  -20.0239 H           1 DSK       0.2100
     30 H8         -1.3320  -20.1796  -22.8560 H           1 DSK       0.2100
     31 H9          0.2417  -16.9542  -21.8383 H           1 DSK       0.2101
     32 H10        -3.8278  -22.9216  -24.6545 H           1 DSK       0.0584
     33 H11        -4.9930  -23.7926  -23.6349 H           1 DSK       0.0584
     34 H12         0.0573  -17.0468  -17.5470 H           1 DSK       0.0608
     35 H13         0.4345  -15.6211  -18.5163 H           1 DSK       0.0608
     36 H14        -0.4749  -19.9121  -20.0870 H           1 DSK       0.0867
     37 H15        -0.6197  -19.8036  -18.3371 H           1 DSK       0.0867
     38 H16        -1.7712  -18.6389  -21.7086 H           1 DSK       0.0867
     39 H17        -3.5054  -18.5426  -21.2898 H           1 DSK       0.0867
     40 H18        -2.6243  -24.6740  -23.5571 H           1 DSK       0.0643
     41 H19        -1.3499  -21.9267  -18.8041 H           1 DSK       0.0667
     42 H20        -2.4584  -16.4474  -22.4597 H           1 DSK       0.0668
     43 H21        -0.9689  -23.6616  -22.0699 H           1 DSK       0.0647
     44 H22        -2.8798  -22.8062  -20.2411 H           1 DSK       0.0647
     45 H23        -0.7529  -21.4778  -21.4304 H           1 DSK       0.0647
     46 H24        -1.2975  -15.1001  -20.3767 H           1 DSK       0.0672
     47 H25         0.1372  -17.6598  -19.9021 H           1 DSK       0.0928
@<TRIPOS>BOND
     1    10     1   1
     2    11     2   1
     3    14     3   1
     4    15     4   1
     5    16     5   1
     6    17     6   1
     7    18     7   1
     8    19     8   1
     9    20     9   1
    10    14    10   1
    11    21    11   1
    12    12    15   1
    13    22    12   1
    14    16    13   1
    15    13    22   1
    16    17    14   1
    17    15    18   1
    18    20    16   1
    19    19    17   1
    20    18    19   1
    21    20    21   1
    22    21    22   1
    23     1    23   1
    24     2    24   1
    25     3    25   1
    26     4    26   1
    27     5    27   1
    28     6    28   1
    29     7    29   1
    30     8    30   1
    31     9    31   1
    32    10    32   1
    33    10    33   1
    34    11    34   1
    35    11    35   1
    36    12    36   1
    37    12    37   1
    38    13    38   1
    39    13    39   1
    40    14    40   1
    41    15    41   1
    42    16    42   1
    43    17    43   1
    44    18    44   1
    45    19    45   1
    46    20    46   1
    47    21    47   1
@<TRIPOS>SUBSTRUCTURE
     1  DSK     10

