@<TRIPOS>MOLECULE
3l4u_ligand_009
    47    47
SMALL
GAST_HUCK
****
This file was generated by PARSER (from files_GN.cpp)

@<TRIPOS>ATOM
      1 OAA         0.9047  -21.8238  -20.6636 O.3         1 DSK      -0.3924
      2 OAB        -3.6984  -15.0208  -18.2732 O.3         1 DSK      -0.3900
      3 OAC        -0.8214  -24.5691  -22.4285 O.3         1 DSK      -0.3869
      4 OAD        -2.3293  -19.0615  -22.9193 O.3         1 DSK      -0.3845
      5 OAE         1.0306  -15.3865  -20.5795 O.3         1 DSK      -0.3844
      6 OAF        -1.6621  -22.1640  -19.7958 O.3         1 DSK      -0.3865
      7 OAG        -4.6315  -21.1321  -22.5667 O.3         1 DSK      -0.3864
      8 OAH        -2.5820  -22.5396  -23.3602 O.3         1 DSK      -0.3865
      9 OAI         0.1459  -15.7853  -17.7517 O.3         1 DSK      -0.3840
     10 CAJ         0.7130  -22.8592  -21.6283 C.3         1 DSK       0.0727
     11 CAK        -3.0278  -16.1775  -17.7700 C.3         1 DSK       0.0944
     12 CAL        -2.5290  -18.8141  -20.4771 C.3         1 DSK       0.1385
     13 CAM        -1.0401  -16.5496  -21.2122 C.3         1 DSK       0.1386
     14 CAN        -0.5724  -23.6802  -21.3391 C.3         1 DSK       0.1065
     15 CAO        -3.1603  -19.3577  -21.7905 C.3         1 DSK       0.1280
     16 CAP         0.0356  -16.3101  -20.1308 C.3         1 DSK       0.1303
     17 CAQ        -1.8607  -22.8491  -21.0398 C.3         1 DSK       0.1114
     18 CAR        -3.4765  -20.8868  -21.7494 C.3         1 DSK       0.1137
     19 CAS        -2.2759  -21.8278  -22.1482 C.3         1 DSK       0.1119
     20 CAT        -0.7138  -15.7828  -18.8939 C.3         1 DSK       0.1349
     21 CAU        -1.9324  -16.7198  -18.7253 C.3         1 DSK       0.1711
     22 SAV        -2.6002  -16.9970  -20.3961 S.3         1 DSK       0.0029
     23 H1          1.8175  -21.5006  -20.8175 H           1 DSK       0.2095
     24 H2         -3.1469  -14.2564  -18.0007 H           1 DSK       0.2096
     25 H3         -0.1110  -25.2443  -22.3799 H           1 DSK       0.2100
     26 H4         -1.4212  -19.3266  -22.6619 H           1 DSK       0.2101
     27 H5          1.5296  -15.1254  -19.7742 H           1 DSK       0.2101
     28 H6         -2.4807  -22.2896  -19.2738 H           1 DSK       0.2100
     29 H7         -4.3878  -20.8628  -23.4799 H           1 DSK       0.2100
     30 H8         -2.4988  -21.8940  -24.0943 H           1 DSK       0.2100
     31 H9          0.0173  -14.9036  -17.3457 H           1 DSK       0.2101
     32 H10         1.5797  -23.5271  -21.5984 H           1 DSK       0.0584
     33 H11         0.6641  -22.4200  -22.6266 H           1 DSK       0.0584
     34 H12        -3.7770  -16.9553  -17.6005 H           1 DSK       0.0608
     35 H13        -2.5872  -15.9285  -16.8011 H           1 DSK       0.0608
     36 H14        -1.4991  -19.1675  -20.3608 H           1 DSK       0.0867
     37 H15        -3.1152  -19.1974  -19.6357 H           1 DSK       0.0867
     38 H16        -0.7153  -17.3072  -21.9303 H           1 DSK       0.0867
     39 H17        -1.2143  -15.6185  -21.7571 H           1 DSK       0.0867
     40 H18        -0.3817  -24.3079  -20.4651 H           1 DSK       0.0643
     41 H19        -4.1113  -18.8339  -21.9395 H           1 DSK       0.0667
     42 H20         0.5259  -17.2623  -19.8968 H           1 DSK       0.0668
     43 H21        -2.6923  -23.5513  -20.9006 H           1 DSK       0.0647
     44 H22        -3.8121  -21.1231  -20.7351 H           1 DSK       0.0647
     45 H23        -1.3906  -21.2224  -22.3641 H           1 DSK       0.0647
     46 H24        -1.0372  -14.7533  -19.0941 H           1 DSK       0.0672
     47 H25        -1.5705  -17.6655  -18.2996 H           1 DSK       0.0928
@<TRIPOS>BOND
     1    10     1   1
     2    11     2   1
     3    14     3   1
     4    15     4   1
     5    16     5   1
     6    17     6   1
     7    18     7   1
     8    19     8   1
     9    20     9   1
    10    14    10   1
    11    21    11   1
    12    12    15   1
    13    22    12   1
    14    16    13   1
    15    13    22   1
    16    17    14   1
    17    15    18   1
    18    20    16   1
    19    19    17   1
    20    18    19   1
    21    20    21   1
    22    21    22   1
    23     1    23   1
    24     2    24   1
    25     3    25   1
    26     4    26   1
    27     5    27   1
    28     6    28   1
    29     7    29   1
    30     8    30   1
    31     9    31   1
    32    10    32   1
    33    10    33   1
    34    11    34   1
    35    11    35   1
    36    12    36   1
    37    12    37   1
    38    13    38   1
    39    13    39   1
    40    14    40   1
    41    15    41   1
    42    16    42   1
    43    17    43   1
    44    18    44   1
    45    19    45   1
    46    20    46   1
    47    21    47   1
@<TRIPOS>SUBSTRUCTURE
     1  DSK     10

