@<TRIPOS>MOLECULE
3l4u_ligand_024
    47    47
SMALL
GAST_HUCK
****
This file was generated by PARSER (from files_GN.cpp)

@<TRIPOS>ATOM
      1 OAA        -1.7175  -17.8815  -22.0668 O.3         1 DSK      -0.3924
      2 OAB        -4.0283  -21.2514  -22.1728 O.3         1 DSK      -0.3900
      3 OAC         0.2745  -15.9537  -23.0076 O.3         1 DSK      -0.3869
      4 OAD        -3.3227  -17.6042  -17.8438 O.3         1 DSK      -0.3845
      5 OAE         0.3034  -23.1509  -19.8722 O.3         1 DSK      -0.3844
      6 OAF         1.6451  -15.6546  -20.6726 O.3         1 DSK      -0.3865
      7 OAG        -1.8704  -15.5661  -17.3782 O.3         1 DSK      -0.3864
      8 OAH        -0.0241  -14.2895  -19.0859 O.3         1 DSK      -0.3865
      9 OAI        -1.3909  -22.1846  -22.1554 O.3         1 DSK      -0.3840
     10 CAJ        -1.8623  -16.4595  -22.0201 C.3         1 DSK       0.0727
     11 CAK        -3.8269  -20.5608  -20.9357 C.3         1 DSK       0.0944
     12 CAL        -1.3132  -18.6305  -18.7637 C.3         1 DSK       0.1385
     13 CAM        -0.7113  -21.3344  -18.5653 C.3         1 DSK       0.1386
     14 CAN        -0.5030  -15.7200  -21.8276 C.3         1 DSK       0.1065
     15 CAO        -2.3246  -17.4444  -18.8610 C.3         1 DSK       0.1280
     16 CAP        -0.3244  -21.8700  -19.9568 C.3         1 DSK       0.1303
     17 CAQ         0.3031  -16.1493  -20.5594 C.3         1 DSK       0.1114
     18 CAR        -1.7262  -15.9932  -18.7416 C.3         1 DSK       0.1137
     19 CAS        -0.2461  -15.7040  -19.1683 C.3         1 DSK       0.1119
     20 CAT        -1.6360  -21.9340  -20.7665 C.3         1 DSK       0.1349
     21 CAU        -2.3329  -20.5816  -20.5229 C.3         1 DSK       0.1711
     22 SAV        -2.1534  -20.2471  -18.7389 S.3         1 DSK       0.0029
     23 H1         -0.7923  -18.0692  -22.3397 H           1 DSK       0.2095
     24 H2         -4.9556  -21.0599  -22.4208 H           1 DSK       0.2096
     25 H3          1.0628  -16.4467  -22.6963 H           1 DSK       0.2100
     26 H4         -3.8701  -16.7891  -17.8807 H           1 DSK       0.2101
     27 H5          0.6102  -23.3524  -20.7838 H           1 DSK       0.2101
     28 H6          1.8377  -15.1816  -19.8311 H           1 DSK       0.2100
     29 H7         -1.7301  -14.5986  -17.3668 H           1 DSK       0.2100
     30 H8          0.0418  -14.0811  -18.1391 H           1 DSK       0.2100
     31 H9         -0.8350  -21.4365  -22.4587 H           1 DSK       0.2101
     32 H10        -2.5521  -16.2094  -21.2052 H           1 DSK       0.0584
     33 H11        -2.3050  -16.1331  -22.9659 H           1 DSK       0.0584
     34 H12        -4.4432  -21.0386  -20.1660 H           1 DSK       0.0608
     35 H13        -4.1656  -19.5293  -21.0656 H           1 DSK       0.0608
     36 H14        -0.7370  -18.5375  -17.8384 H           1 DSK       0.0867
     37 H15        -0.6227  -18.5975  -19.6073 H           1 DSK       0.0867
     38 H16         0.1299  -20.8279  -18.0907 H           1 DSK       0.0867
     39 H17        -1.0126  -22.1666  -17.9236 H           1 DSK       0.0867
     40 H18        -0.7103  -14.6443  -21.7943 H           1 DSK       0.0643
     41 H19        -2.8419  -17.5026  -19.8168 H           1 DSK       0.0667
     42 H20         0.3721  -21.1717  -20.4374 H           1 DSK       0.0668
     43 H21         0.4108  -17.2349  -20.5728 H           1 DSK       0.0647
     44 H22        -2.3665  -15.3219  -19.3232 H           1 DSK       0.0647
     45 H23         0.4037  -16.1563  -18.4015 H           1 DSK       0.0647
     46 H24        -2.2594  -22.7507  -20.3855 H           1 DSK       0.0672
     47 H25        -1.8133  -19.8211  -21.1165 H           1 DSK       0.0928
@<TRIPOS>BOND
     1    10     1   1
     2    11     2   1
     3    14     3   1
     4    15     4   1
     5    16     5   1
     6    17     6   1
     7    18     7   1
     8    19     8   1
     9    20     9   1
    10    14    10   1
    11    21    11   1
    12    12    15   1
    13    22    12   1
    14    16    13   1
    15    13    22   1
    16    17    14   1
    17    15    18   1
    18    20    16   1
    19    19    17   1
    20    18    19   1
    21    20    21   1
    22    21    22   1
    23     1    23   1
    24     2    24   1
    25     3    25   1
    26     4    26   1
    27     5    27   1
    28     6    28   1
    29     7    29   1
    30     8    30   1
    31     9    31   1
    32    10    32   1
    33    10    33   1
    34    11    34   1
    35    11    35   1
    36    12    36   1
    37    12    37   1
    38    13    38   1
    39    13    39   1
    40    14    40   1
    41    15    41   1
    42    16    42   1
    43    17    43   1
    44    18    44   1
    45    19    45   1
    46    20    46   1
    47    21    47   1
@<TRIPOS>SUBSTRUCTURE
     1  DSK     10

