@<TRIPOS>MOLECULE
3l4u_ligand_064
    47    47
SMALL
GAST_HUCK
****
This file was generated by PARSER (from files_GN.cpp)

@<TRIPOS>ATOM
      1 OAA         2.6455  -23.2995  -23.4529 O.3         1 DSK      -0.3924
      2 OAB        -5.2658  -27.5144  -20.8967 O.3         1 DSK      -0.3900
      3 OAC        -0.0725  -21.6499  -25.2362 O.3         1 DSK      -0.3869
      4 OAD        -3.4767  -25.8328  -26.5612 O.3         1 DSK      -0.3845
      5 OAE        -9.0982  -26.2093  -23.9404 O.3         1 DSK      -0.3844
      6 OAF        -0.2791  -22.4528  -22.3231 O.3         1 DSK      -0.3865
      7 OAG        -1.9150  -23.5997  -26.1234 O.3         1 DSK      -0.3864
      8 OAH        -2.6783  -22.7564  -23.4921 O.3         1 DSK      -0.3865
      9 OAI        -7.4369  -25.0583  -20.9819 O.3         1 DSK      -0.3840
     10 CAJ         1.9594  -22.3423  -24.2490 C.3         1 DSK       0.0727
     11 CAK        -5.3253  -27.3785  -22.3190 C.3         1 DSK       0.0944
     12 CAL        -4.6384  -24.6248  -24.8093 C.3         1 DSK       0.1385
     13 CAM        -7.3383  -24.5766  -24.2970 C.3         1 DSK       0.1386
     14 CAN         0.5229  -22.7967  -24.6211 C.3         1 DSK       0.1065
     15 CAO        -3.3434  -25.3768  -25.2053 C.3         1 DSK       0.1280
     16 CAP        -8.2951  -25.2156  -23.2768 C.3         1 DSK       0.1303
     17 CAQ        -0.2929  -23.3738  -23.4178 C.3         1 DSK       0.1114
     18 CAR        -2.0169  -24.5503  -25.0629 C.3         1 DSK       0.1137
     19 CAS        -1.7706  -23.8382  -23.6967 C.3         1 DSK       0.1119
     20 CAT        -7.4173  -25.8566  -22.1695 C.3         1 DSK       0.1349
     21 CAU        -5.9628  -26.0200  -22.6959 C.3         1 DSK       0.1711
     22 SAV        -6.0132  -25.7831  -24.5073 S.3         1 DSK       0.0029
     23 H1          3.4676  -22.8341  -23.1545 H           1 DSK       0.2095
     24 H2         -4.8459  -28.3988  -20.7574 H           1 DSK       0.2096
     25 H3         -0.9589  -21.9352  -25.5463 H           1 DSK       0.2100
     26 H4         -3.1111  -25.0809  -27.0872 H           1 DSK       0.2101
     27 H5        -10.0268  -26.0257  -23.6688 H           1 DSK       0.2101
     28 H6         -0.1840  -21.5597  -22.7335 H           1 DSK       0.2100
     29 H7         -2.7879  -23.1551  -26.1672 H           1 DSK       0.2100
     30 H8         -2.5451  -22.1396  -24.2494 H           1 DSK       0.2100
     31 H9         -7.1498  -24.1667  -21.2673 H           1 DSK       0.2101
     32 H10         2.5366  -22.1598  -25.1567 H           1 DSK       0.0584
     33 H11         1.9044  -21.4143  -23.6799 H           1 DSK       0.0584
     34 H12        -5.9105  -28.2017  -22.7356 H           1 DSK       0.0608
     35 H13        -4.3076  -27.4488  -22.7094 H           1 DSK       0.0608
     36 H14        -4.9388  -23.9663  -25.6364 H           1 DSK       0.0867
     37 H15        -4.4653  -23.9948  -23.9312 H           1 DSK       0.0867
     38 H16        -6.9582  -23.6355  -23.8900 H           1 DSK       0.0867
     39 H17        -7.8452  -24.3960  -25.2484 H           1 DSK       0.0867
     40 H18         0.5976  -23.5764  -25.3781 H           1 DSK       0.0643
     41 H19        -3.2425  -26.2438  -24.5638 H           1 DSK       0.0667
     42 H20        -8.9617  -24.4470  -22.8653 H           1 DSK       0.0668
     43 H21         0.2385  -24.2609  -23.0693 H           1 DSK       0.0647
     44 H22        -1.2039  -25.2602  -25.2216 H           1 DSK       0.0647
     45 H23        -2.0074  -24.5516  -22.9089 H           1 DSK       0.0647
     46 H24        -7.8469  -26.8256  -21.8958 H           1 DSK       0.0672
     47 H25        -5.3393  -25.2345  -22.2555 H           1 DSK       0.0928
@<TRIPOS>BOND
     1    10     1   1
     2    11     2   1
     3    14     3   1
     4    15     4   1
     5    16     5   1
     6    17     6   1
     7    18     7   1
     8    19     8   1
     9    20     9   1
    10    14    10   1
    11    21    11   1
    12    12    15   1
    13    22    12   1
    14    16    13   1
    15    13    22   1
    16    17    14   1
    17    15    18   1
    18    20    16   1
    19    19    17   1
    20    18    19   1
    21    20    21   1
    22    21    22   1
    23     1    23   1
    24     2    24   1
    25     3    25   1
    26     4    26   1
    27     5    27   1
    28     6    28   1
    29     7    29   1
    30     8    30   1
    31     9    31   1
    32    10    32   1
    33    10    33   1
    34    11    34   1
    35    11    35   1
    36    12    36   1
    37    12    37   1
    38    13    38   1
    39    13    39   1
    40    14    40   1
    41    15    41   1
    42    16    42   1
    43    17    43   1
    44    18    44   1
    45    19    45   1
    46    20    46   1
    47    21    47   1
@<TRIPOS>SUBSTRUCTURE
     1  DSK     10

