@<TRIPOS>MOLECULE
3l4u_ligand_045
    47    47
SMALL
GAST_HUCK
****
This file was generated by PARSER (from files_GN.cpp)

@<TRIPOS>ATOM
      1 OAA         0.1001  -15.8572  -23.4886 O.3         1 DSK      -0.3924
      2 OAB        -2.8035  -22.9112  -18.2480 O.3         1 DSK      -0.3900
      3 OAC         2.1228  -15.3015  -21.9053 O.3         1 DSK      -0.3869
      4 OAD        -3.1415  -18.2684  -21.1235 O.3         1 DSK      -0.3845
      5 OAE        -4.4513  -21.8655  -22.9837 O.3         1 DSK      -0.3844
      6 OAF         1.7459  -16.0030  -19.2480 O.3         1 DSK      -0.3865
      7 OAG        -2.5901  -17.2556  -18.5049 O.3         1 DSK      -0.3864
      8 OAH        -1.0342  -14.5810  -19.1462 O.3         1 DSK      -0.3865
      9 OAI        -5.5684  -21.3279  -20.1938 O.3         1 DSK      -0.3840
     10 CAJ        -0.2139  -15.0003  -22.3856 C.3         1 DSK       0.0727
     11 CAK        -3.1432  -21.5257  -18.1859 C.3         1 DSK       0.0944
     12 CAL        -1.0655  -19.1675  -20.1206 C.3         1 DSK       0.1385
     13 CAM        -2.3465  -20.9181  -22.0989 C.3         1 DSK       0.1386
     14 CAN         0.8670  -15.0385  -21.2743 C.3         1 DSK       0.1065
     15 CAO        -1.8166  -17.9221  -20.6985 C.3         1 DSK       0.1280
     16 CAP        -3.8868  -21.0248  -21.9719 C.3         1 DSK       0.1303
     17 CAQ         0.6304  -16.0887  -20.1373 C.3         1 DSK       0.1114
     18 CAR        -1.9496  -16.7398  -19.6853 C.3         1 DSK       0.1137
     19 CAS        -0.6582  -15.9659  -19.2538 C.3         1 DSK       0.1119
     20 CAT        -4.2069  -21.5811  -20.5657 C.3         1 DSK       0.1349
     21 CAU        -3.2325  -20.8796  -19.5921 C.3         1 DSK       0.1711
     22 SAV        -1.6271  -20.8840  -20.4392 S.3         1 DSK       0.0029
     23 H1          0.6576  -16.5674  -23.1103 H           1 DSK       0.2095
     24 H2         -2.7714  -23.2008  -17.3122 H           1 DSK       0.2096
     25 H3          2.2049  -16.2816  -21.9081 H           1 DSK       0.2100
     26 H4         -3.3798  -17.5654  -21.7660 H           1 DSK       0.2101
     27 H5         -4.3382  -21.3646  -23.8175 H           1 DSK       0.2101
     28 H6          1.7302  -15.0861  -18.9128 H           1 DSK       0.2100
     29 H7         -2.6521  -16.5006  -17.8606 H           1 DSK       0.2100
     30 H8         -0.7322  -14.2634  -18.2630 H           1 DSK       0.2100
     31 H9         -6.1085  -21.8246  -20.8433 H           1 DSK       0.2101
     32 H10        -1.1871  -15.2850  -22.0000 H           1 DSK       0.0584
     33 H11        -0.3109  -13.9737  -22.7641 H           1 DSK       0.0584
     34 H12        -2.3786  -21.0039  -17.5963 H           1 DSK       0.0608
     35 H13        -4.1028  -21.4173  -17.6640 H           1 DSK       0.0608
     36 H14        -0.9810  -19.0859  -19.0250 H           1 DSK       0.0867
     37 H15        -0.0409  -19.1504  -20.5044 H           1 DSK       0.0867
     38 H16        -2.0422  -20.0578  -22.6933 H           1 DSK       0.0867
     39 H17        -1.9574  -21.8167  -22.5913 H           1 DSK       0.0867
     40 H18         0.9257  -14.0452  -20.8227 H           1 DSK       0.0643
     41 H19        -1.2611  -17.5623  -21.5694 H           1 DSK       0.0667
     42 H20        -4.3268  -20.0307  -22.0791 H           1 DSK       0.0668
     43 H21         0.6897  -17.0888  -20.5664 H           1 DSK       0.0647
     44 H22        -2.6582  -16.0226  -20.1010 H           1 DSK       0.0647
     45 H23        -0.4091  -16.3209  -18.2365 H           1 DSK       0.0647
     46 H24        -4.0297  -22.6618  -20.5592 H           1 DSK       0.0672
     47 H25        -3.5816  -19.8555  -19.4522 H           1 DSK       0.0928
@<TRIPOS>BOND
     1    10     1   1
     2    11     2   1
     3    14     3   1
     4    15     4   1
     5    16     5   1
     6    17     6   1
     7    18     7   1
     8    19     8   1
     9    20     9   1
    10    14    10   1
    11    21    11   1
    12    12    15   1
    13    22    12   1
    14    16    13   1
    15    13    22   1
    16    17    14   1
    17    15    18   1
    18    20    16   1
    19    19    17   1
    20    18    19   1
    21    20    21   1
    22    21    22   1
    23     1    23   1
    24     2    24   1
    25     3    25   1
    26     4    26   1
    27     5    27   1
    28     6    28   1
    29     7    29   1
    30     8    30   1
    31     9    31   1
    32    10    32   1
    33    10    33   1
    34    11    34   1
    35    11    35   1
    36    12    36   1
    37    12    37   1
    38    13    38   1
    39    13    39   1
    40    14    40   1
    41    15    41   1
    42    16    42   1
    43    17    43   1
    44    18    44   1
    45    19    45   1
    46    20    46   1
    47    21    47   1
@<TRIPOS>SUBSTRUCTURE
     1  DSK     10

