@<TRIPOS>MOLECULE
3l4u_ligand_055
    47    47
SMALL
GAST_HUCK
****
This file was generated by PARSER (from files_GN.cpp)

@<TRIPOS>ATOM
      1 OAA         3.2060  -15.9040  -21.9850 O.3         1 DSK      -0.3924
      2 OAB        -3.2489  -23.9963  -23.0890 O.3         1 DSK      -0.3900
      3 OAC         0.8199  -14.3121  -20.6649 O.3         1 DSK      -0.3869
      4 OAD        -2.9144  -18.8023  -22.5963 O.3         1 DSK      -0.3845
      5 OAE         0.7341  -22.8993  -19.9876 O.3         1 DSK      -0.3844
      6 OAF        -0.2447  -16.2053  -19.0373 O.3         1 DSK      -0.3865
      7 OAG        -2.5030  -17.6600  -19.1239 O.3         1 DSK      -0.3864
      8 OAH        -1.4675  -16.5237  -22.4743 O.3         1 DSK      -0.3865
      9 OAI         0.3696  -22.3884  -22.9682 O.3         1 DSK      -0.3840
     10 CAJ         2.3957  -16.1539  -20.8435 C.3         1 DSK       0.0727
     11 CAK        -2.7348  -22.7346  -23.5132 C.3         1 DSK       0.0944
     12 CAL        -3.3659  -20.0699  -20.5813 C.3         1 DSK       0.1385
     13 CAM        -1.5935  -22.1403  -19.7781 C.3         1 DSK       0.1386
     14 CAN         0.9486  -15.6661  -21.0935 C.3         1 DSK       0.1065
     15 CAO        -2.5013  -18.9497  -21.2322 C.3         1 DSK       0.1280
     16 CAP        -0.2892  -22.1062  -20.5859 C.3         1 DSK       0.1303
     17 CAQ        -0.1288  -16.5686  -20.4153 C.3         1 DSK       0.1114
     18 CAR        -2.5944  -17.5399  -20.5470 C.3         1 DSK       0.1137
     19 CAS        -1.5581  -16.4718  -21.0509 C.3         1 DSK       0.1119
     20 CAT        -0.6490  -22.6411  -21.9906 C.3         1 DSK       0.1349
     21 CAU        -1.9895  -21.9699  -22.3910 C.3         1 DSK       0.1711
     22 SAV        -2.9986  -21.8404  -20.8860 S.3         1 DSK       0.0029
     23 H1          4.1102  -16.1187  -21.6906 H           1 DSK       0.2095
     24 H2         -3.9336  -23.7865  -22.4179 H           1 DSK       0.2096
     25 H3          1.3747  -14.2305  -19.8571 H           1 DSK       0.2100
     26 H4         -3.8504  -18.5047  -22.5532 H           1 DSK       0.2101
     27 H5          1.0017  -22.4125  -19.1857 H           1 DSK       0.2101
     28 H6          0.6474  -15.9314  -18.7432 H           1 DSK       0.2100
     29 H7         -1.6788  -18.1664  -18.9515 H           1 DSK       0.2100
     30 H8         -1.9108  -15.7131  -22.7876 H           1 DSK       0.2100
     31 H9          1.2122  -22.3541  -22.4529 H           1 DSK       0.2101
     32 H10         2.8293  -15.6345  -19.9921 H           1 DSK       0.0584
     33 H11         2.4033  -17.2252  -20.6276 H           1 DSK       0.0584
     34 H12        -3.5656  -22.1348  -23.8854 H           1 DSK       0.0608
     35 H13        -2.0515  -22.9203  -24.3449 H           1 DSK       0.0608
     36 H14        -4.4035  -19.9054  -20.8873 H           1 DSK       0.0867
     37 H15        -3.3461  -19.9514  -19.4941 H           1 DSK       0.0867
     38 H16        -1.5680  -21.4355  -18.9455 H           1 DSK       0.0867
     39 H17        -1.7369  -23.1410  -19.3692 H           1 DSK       0.0867
     40 H18         0.7875  -15.6637  -22.1713 H           1 DSK       0.0643
     41 H19        -1.4635  -19.2658  -21.2213 H           1 DSK       0.0667
     42 H20         0.0783  -21.0828  -20.6547 H           1 DSK       0.0668
     43 H21         0.2144  -17.6066  -20.4624 H           1 DSK       0.0647
     44 H22        -3.5951  -17.1389  -20.7443 H           1 DSK       0.0647
     45 H23        -1.9497  -15.4756  -20.8107 H           1 DSK       0.0647
     46 H24        -0.7779  -23.7310  -21.9168 H           1 DSK       0.0672
     47 H25        -1.7502  -20.9875  -22.7819 H           1 DSK       0.0928
@<TRIPOS>BOND
     1    10     1   1
     2    11     2   1
     3    14     3   1
     4    15     4   1
     5    16     5   1
     6    17     6   1
     7    18     7   1
     8    19     8   1
     9    20     9   1
    10    14    10   1
    11    21    11   1
    12    12    15   1
    13    22    12   1
    14    16    13   1
    15    13    22   1
    16    17    14   1
    17    15    18   1
    18    20    16   1
    19    19    17   1
    20    18    19   1
    21    20    21   1
    22    21    22   1
    23     1    23   1
    24     2    24   1
    25     3    25   1
    26     4    26   1
    27     5    27   1
    28     6    28   1
    29     7    29   1
    30     8    30   1
    31     9    31   1
    32    10    32   1
    33    10    33   1
    34    11    34   1
    35    11    35   1
    36    12    36   1
    37    12    37   1
    38    13    38   1
    39    13    39   1
    40    14    40   1
    41    15    41   1
    42    16    42   1
    43    17    43   1
    44    18    44   1
    45    19    45   1
    46    20    46   1
    47    21    47   1
@<TRIPOS>SUBSTRUCTURE
     1  DSK     10

