@<TRIPOS>MOLECULE
3l4u_ligand_078
    47    47
SMALL
GAST_HUCK
****
This file was generated by PARSER (from files_GN.cpp)

@<TRIPOS>ATOM
      1 OAA         0.0178  -15.1634  -23.1000 O.3         1 DSK      -0.3924
      2 OAB        -3.9396  -24.7756  -19.9674 O.3         1 DSK      -0.3900
      3 OAC         2.1318  -15.5281  -21.1423 O.3         1 DSK      -0.3869
      4 OAD        -2.1870  -19.1660  -22.5403 O.3         1 DSK      -0.3845
      5 OAE        -5.7956  -22.7220  -24.3653 O.3         1 DSK      -0.3844
      6 OAF        -0.3150  -16.1810  -18.7702 O.3         1 DSK      -0.3865
      7 OAG        -1.5102  -18.5170  -19.0182 O.3         1 DSK      -0.3864
      8 OAH        -0.9872  -17.0064  -22.2761 O.3         1 DSK      -0.3865
      9 OAI        -7.1338  -23.2272  -21.7177 O.3         1 DSK      -0.3840
     10 CAJ         0.1219  -14.3800  -21.9108 C.3         1 DSK       0.0727
     11 CAK        -4.7908  -23.6984  -19.5952 C.3         1 DSK       0.0944
     12 CAL        -3.4913  -20.2614  -20.8533 C.3         1 DSK       0.1385
     13 CAM        -3.8785  -21.9994  -23.0409 C.3         1 DSK       0.1386
     14 CAN         0.7931  -15.1861  -20.7508 C.3         1 DSK       0.1065
     15 CAO        -2.1971  -19.4391  -21.1382 C.3         1 DSK       0.1280
     16 CAP        -5.4030  -22.1910  -23.0981 C.3         1 DSK       0.1303
     17 CAQ         0.0230  -16.4334  -20.1460 C.3         1 DSK       0.1114
     18 CAR        -2.0635  -18.1282  -20.2805 C.3         1 DSK       0.1137
     19 CAS        -1.2915  -16.8814  -20.8915 C.3         1 DSK       0.1119
     20 CAT        -5.7296  -23.1596  -21.9433 C.3         1 DSK       0.1349
     21 CAU        -4.9612  -22.6360  -20.7150 C.3         1 DSK       0.1711
     22 SAV        -3.3480  -22.0322  -21.3068 S.3         1 DSK       0.0029
     23 H1         -0.6990  -14.7315  -23.6256 H           1 DSK       0.2095
     24 H2         -4.4800  -25.3577  -20.5422 H           1 DSK       0.2096
     25 H3          2.0339  -16.2988  -21.7320 H           1 DSK       0.2100
     26 H4         -1.3618  -19.5657  -22.8748 H           1 DSK       0.2101
     27 H5         -6.7765  -22.6987  -24.3584 H           1 DSK       0.2101
     28 H6          0.5247  -15.8068  -18.3986 H           1 DSK       0.2100
     29 H7         -2.2708  -18.8696  -18.4891 H           1 DSK       0.2100
     30 H8         -0.2901  -17.6959  -22.3083 H           1 DSK       0.2100
     31 H9         -7.2585  -23.9597  -21.0807 H           1 DSK       0.2101
     32 H10        -0.8737  -14.0528  -21.6005 H           1 DSK       0.0584
     33 H11         0.7233  -13.4847  -22.1151 H           1 DSK       0.0584
     34 H12        -4.3692  -23.2289  -18.7054 H           1 DSK       0.0608
     35 H13        -5.7651  -24.1070  -19.3210 H           1 DSK       0.0608
     36 H14        -4.3324  -19.7912  -21.3650 H           1 DSK       0.0867
     37 H15        -3.6803  -20.2264  -19.7827 H           1 DSK       0.0867
     38 H16        -3.5892  -21.0865  -23.5629 H           1 DSK       0.0867
     39 H17        -3.3770  -22.8318  -23.5401 H           1 DSK       0.0867
     40 H18         0.9316  -14.4635  -19.9411 H           1 DSK       0.0643
     41 H19        -1.3193  -20.0751  -20.9555 H           1 DSK       0.0667
     42 H20        -5.9084  -21.2255  -22.9388 H           1 DSK       0.0668
     43 H21         0.7035  -17.2870  -20.1656 H           1 DSK       0.0647
     44 H22        -3.0830  -17.7942  -20.0727 H           1 DSK       0.0647
     45 H23        -1.9900  -16.0323  -20.8344 H           1 DSK       0.0647
     46 H24        -5.3880  -24.1555  -22.2267 H           1 DSK       0.0672
     47 H25        -5.5345  -21.8136  -20.2872 H           1 DSK       0.0928
@<TRIPOS>BOND
     1    10     1   1
     2    11     2   1
     3    14     3   1
     4    15     4   1
     5    16     5   1
     6    17     6   1
     7    18     7   1
     8    19     8   1
     9    20     9   1
    10    14    10   1
    11    21    11   1
    12    12    15   1
    13    22    12   1
    14    16    13   1
    15    13    22   1
    16    17    14   1
    17    15    18   1
    18    20    16   1
    19    19    17   1
    20    18    19   1
    21    20    21   1
    22    21    22   1
    23     1    23   1
    24     2    24   1
    25     3    25   1
    26     4    26   1
    27     5    27   1
    28     6    28   1
    29     7    29   1
    30     8    30   1
    31     9    31   1
    32    10    32   1
    33    10    33   1
    34    11    34   1
    35    11    35   1
    36    12    36   1
    37    12    37   1
    38    13    38   1
    39    13    39   1
    40    14    40   1
    41    15    41   1
    42    16    42   1
    43    17    43   1
    44    18    44   1
    45    19    45   1
    46    20    46   1
    47    21    47   1
@<TRIPOS>SUBSTRUCTURE
     1  DSK     10

