@<TRIPOS>MOLECULE
3l4u_ligand_048
    47    47
SMALL
GAST_HUCK
****
This file was generated by PARSER (from files_GN.cpp)

@<TRIPOS>ATOM
      1 OAA        -5.9704  -13.9497  -19.3635 O.3         1 DSK      -0.3924
      2 OAB        -5.9878  -22.8022  -21.6645 O.3         1 DSK      -0.3900
      3 OAC        -3.8622  -15.0719  -17.6307 O.3         1 DSK      -0.3869
      4 OAD        -0.8499  -17.4299  -21.5426 O.3         1 DSK      -0.3845
      5 OAE        -1.0397  -23.6199  -22.5272 O.3         1 DSK      -0.3844
      6 OAF        -1.6590  -13.9535  -19.4003 O.3         1 DSK      -0.3865
      7 OAG        -1.7384  -18.6973  -18.2886 O.3         1 DSK      -0.3864
      8 OAH        -1.3783  -16.1992  -17.5836 O.3         1 DSK      -0.3865
      9 OAI        -3.4812  -22.9367  -24.1422 O.3         1 DSK      -0.3840
     10 CAJ        -4.5663  -13.8049  -19.5660 C.3         1 DSK       0.0727
     11 CAK        -5.5687  -21.5096  -22.0929 C.3         1 DSK       0.0944
     12 CAL        -2.4782  -19.1717  -21.5604 C.3         1 DSK       0.1385
     13 CAM        -1.7611  -21.8196  -21.0239 C.3         1 DSK       0.1386
     14 CAN        -3.8300  -15.0664  -19.0565 C.3         1 DSK       0.1065
     15 CAO        -1.4367  -18.4143  -20.6914 C.3         1 DSK       0.1280
     16 CAP        -1.7895  -22.4063  -22.4497 C.3         1 DSK       0.1303
     17 CAQ        -2.3632  -15.1859  -19.5884 C.3         1 DSK       0.1114
     18 CAR        -2.0156  -17.7954  -19.3690 C.3         1 DSK       0.1137
     19 CAS        -1.5080  -16.3579  -18.9984 C.3         1 DSK       0.1119
     20 CAT        -3.2796  -22.6408  -22.7613 C.3         1 DSK       0.1349
     21 CAU        -4.0337  -21.3532  -22.3274 C.3         1 DSK       0.1711
     22 SAV        -3.1728  -20.7027  -20.8505 S.3         1 DSK       0.0029
     23 H1         -6.3935  -13.3075  -19.9693 H           1 DSK       0.2095
     24 H2         -5.9059  -23.3781  -22.4547 H           1 DSK       0.2096
     25 H3         -3.2191  -14.3853  -17.3676 H           1 DSK       0.2100
     26 H4         -0.1920  -17.9254  -22.0720 H           1 DSK       0.2101
     27 H5         -0.1076  -23.3500  -22.3677 H           1 DSK       0.2101
     28 H6         -1.6657  -13.7568  -18.4375 H           1 DSK       0.2100
     29 H7         -0.8051  -18.5278  -18.0372 H           1 DSK       0.2100
     30 H8         -2.2952  -16.1725  -17.2404 H           1 DSK       0.2100
     31 H9         -2.6275  -23.3014  -24.4603 H           1 DSK       0.2101
     32 H10        -4.2307  -12.9182  -19.0254 H           1 DSK       0.0584
     33 H11        -4.3839  -13.6613  -20.6346 H           1 DSK       0.0584
     34 H12        -5.9253  -20.7999  -21.3463 H           1 DSK       0.0608
     35 H13        -6.1052  -21.2982  -23.0183 H           1 DSK       0.0608
     36 H14        -2.0198  -19.3925  -22.5260 H           1 DSK       0.0867
     37 H15        -3.3193  -18.4944  -21.7498 H           1 DSK       0.0867
     38 H16        -0.8089  -21.3221  -20.8224 H           1 DSK       0.0867
     39 H17        -1.8932  -22.6254  -20.2964 H           1 DSK       0.0867
     40 H18        -4.4100  -15.9219  -19.3951 H           1 DSK       0.0643
     41 H19        -0.6236  -19.0936  -20.4322 H           1 DSK       0.0667
     42 H20        -1.3634  -21.6860  -23.1611 H           1 DSK       0.0668
     43 H21        -2.4228  -15.3298  -20.6682 H           1 DSK       0.0647
     44 H22        -3.1042  -17.7673  -19.4302 H           1 DSK       0.0647
     45 H23        -0.4858  -16.2549  -19.3804 H           1 DSK       0.0647
     46 H24        -3.6156  -23.4980  -22.1752 H           1 DSK       0.0672
     47 H25        -3.9170  -20.6361  -23.1442 H           1 DSK       0.0928
@<TRIPOS>BOND
     1    10     1   1
     2    11     2   1
     3    14     3   1
     4    15     4   1
     5    16     5   1
     6    17     6   1
     7    18     7   1
     8    19     8   1
     9    20     9   1
    10    14    10   1
    11    21    11   1
    12    12    15   1
    13    22    12   1
    14    16    13   1
    15    13    22   1
    16    17    14   1
    17    15    18   1
    18    20    16   1
    19    19    17   1
    20    18    19   1
    21    20    21   1
    22    21    22   1
    23     1    23   1
    24     2    24   1
    25     3    25   1
    26     4    26   1
    27     5    27   1
    28     6    28   1
    29     7    29   1
    30     8    30   1
    31     9    31   1
    32    10    32   1
    33    10    33   1
    34    11    34   1
    35    11    35   1
    36    12    36   1
    37    12    37   1
    38    13    38   1
    39    13    39   1
    40    14    40   1
    41    15    41   1
    42    16    42   1
    43    17    43   1
    44    18    44   1
    45    19    45   1
    46    20    46   1
    47    21    47   1
@<TRIPOS>SUBSTRUCTURE
     1  DSK     10

