@<TRIPOS>MOLECULE
3l4u_ligand_054
    47    47
SMALL
GAST_HUCK
****
This file was generated by PARSER (from files_GN.cpp)

@<TRIPOS>ATOM
      1 OAA        -0.4145  -22.8740  -16.8124 O.3         1 DSK      -0.3924
      2 OAB         0.1303  -14.1137  -19.1982 O.3         1 DSK      -0.3900
      3 OAC         2.5988  -22.4102  -18.9094 O.3         1 DSK      -0.3869
      4 OAD        -3.0924  -20.4138  -19.4730 O.3         1 DSK      -0.3845
      5 OAE        -3.9174  -15.4603  -19.8682 O.3         1 DSK      -0.3844
      6 OAF        -0.5710  -24.2379  -19.1475 O.3         1 DSK      -0.3865
      7 OAG        -1.8796  -21.4546  -21.8525 O.3         1 DSK      -0.3864
      8 OAH         0.4223  -22.6788  -21.9252 O.3         1 DSK      -0.3865
      9 OAI        -1.3846  -16.3593  -21.9503 O.3         1 DSK      -0.3840
     10 CAJ         0.8376  -22.3343  -17.2474 C.3         1 DSK       0.0727
     11 CAK         0.0067  -15.4206  -18.6210 C.3         1 DSK       0.0944
     12 CAL        -1.0690  -19.1872  -20.0736 C.3         1 DSK       0.1385
     13 CAM        -2.7276  -17.2873  -18.7582 C.3         1 DSK       0.1386
     14 CAN         1.4581  -23.1209  -18.4334 C.3         1 DSK       0.1065
     15 CAO        -1.6742  -20.5527  -19.6138 C.3         1 DSK       0.1280
     16 CAP        -2.9691  -16.5127  -20.0749 C.3         1 DSK       0.1303
     17 CAQ         0.5241  -23.4688  -19.6319 C.3         1 DSK       0.1114
     18 CAR        -1.3830  -21.7706  -20.5482 C.3         1 DSK       0.1137
     19 CAS         0.1111  -22.2777  -20.5861 C.3         1 DSK       0.1119
     20 CAT        -1.6102  -15.9639  -20.5897 C.3         1 DSK       0.1349
     21 CAU        -0.4586  -16.4742  -19.6591 C.3         1 DSK       0.1711
     22 SAV        -1.0419  -17.9368  -18.7473 S.3         1 DSK       0.0029
     23 H1         -0.2132  -23.8023  -16.5543 H           1 DSK       0.2095
     24 H2         -0.0597  -13.5261  -18.4232 H           1 DSK       0.2096
     25 H3          3.2539  -22.4346  -18.1775 H           1 DSK       0.2100
     26 H4         -3.4191  -20.1236  -20.3472 H           1 DSK       0.2101
     27 H5         -3.8531  -14.9159  -20.6832 H           1 DSK       0.2101
     28 H6         -0.9862  -24.6437  -19.9372 H           1 DSK       0.2100
     29 H7         -1.2777  -20.7766  -22.2069 H           1 DSK       0.2100
     30 H8          0.5094  -21.8476  -22.4396 H           1 DSK       0.2100
     31 H9         -1.8477  -15.6692  -22.4754 H           1 DSK       0.2101
     32 H10         1.5294  -22.3615  -16.3935 H           1 DSK       0.0584
     33 H11         0.6981  -21.2831  -17.5156 H           1 DSK       0.0584
     34 H12        -0.7051  -15.3665  -17.7801 H           1 DSK       0.0608
     35 H13         0.9855  -15.7030  -18.2119 H           1 DSK       0.0608
     36 H14        -1.6115  -18.8284  -20.9521 H           1 DSK       0.0867
     37 H15        -0.0280  -19.3337  -20.3734 H           1 DSK       0.0867
     38 H16        -3.4467  -18.0920  -18.6240 H           1 DSK       0.0867
     39 H17        -2.8208  -16.6071  -17.9074 H           1 DSK       0.0867
     40 H18         1.8242  -24.0606  -18.0203 H           1 DSK       0.0643
     41 H19        -1.2978  -20.7893  -18.6153 H           1 DSK       0.0667
     42 H20        -3.4066  -17.1987  -20.8158 H           1 DSK       0.0668
     43 H21         1.1109  -24.1733  -20.2230 H           1 DSK       0.0647
     44 H22        -2.0151  -22.5916  -20.2116 H           1 DSK       0.0647
     45 H23         0.7762  -21.4350  -20.3950 H           1 DSK       0.0647
     46 H24        -1.6308  -14.8649  -20.5856 H           1 DSK       0.0672
     47 H25         0.4107  -16.7549  -20.2626 H           1 DSK       0.0928
@<TRIPOS>BOND
     1    10     1   1
     2    11     2   1
     3    14     3   1
     4    15     4   1
     5    16     5   1
     6    17     6   1
     7    18     7   1
     8    19     8   1
     9    20     9   1
    10    14    10   1
    11    21    11   1
    12    12    15   1
    13    22    12   1
    14    16    13   1
    15    13    22   1
    16    17    14   1
    17    15    18   1
    18    20    16   1
    19    19    17   1
    20    18    19   1
    21    20    21   1
    22    21    22   1
    23     1    23   1
    24     2    24   1
    25     3    25   1
    26     4    26   1
    27     5    27   1
    28     6    28   1
    29     7    29   1
    30     8    30   1
    31     9    31   1
    32    10    32   1
    33    10    33   1
    34    11    34   1
    35    11    35   1
    36    12    36   1
    37    12    37   1
    38    13    38   1
    39    13    39   1
    40    14    40   1
    41    15    41   1
    42    16    42   1
    43    17    43   1
    44    18    44   1
    45    19    45   1
    46    20    46   1
    47    21    47   1
@<TRIPOS>SUBSTRUCTURE
     1  DSK     10

