@<TRIPOS>MOLECULE
3l4u_ligand_047
    47    47
SMALL
GAST_HUCK
****
This file was generated by PARSER (from files_GN.cpp)

@<TRIPOS>ATOM
      1 OAA        -0.3635  -15.7550  -17.4538 O.3         1 DSK      -0.3924
      2 OAB        -3.7270  -21.1039  -15.3730 O.3         1 DSK      -0.3900
      3 OAC        -3.3914  -14.6365  -19.0884 O.3         1 DSK      -0.3869
      4 OAD        -0.2868  -21.2667  -20.7987 O.3         1 DSK      -0.3845
      5 OAE        -6.2670  -24.2428  -19.3652 O.3         1 DSK      -0.3844
      6 OAF        -1.5815  -16.3281  -21.2472 O.3         1 DSK      -0.3865
      7 OAG        -2.0123  -18.9797  -21.7790 O.3         1 DSK      -0.3864
      8 OAH        -2.9998  -18.5615  -18.7789 O.3         1 DSK      -0.3865
      9 OAI        -6.1922  -22.2075  -17.1845 O.3         1 DSK      -0.3840
     10 CAJ        -1.7785  -15.6216  -17.5905 C.3         1 DSK       0.0727
     11 CAK        -3.1074  -22.0850  -16.2029 C.3         1 DSK       0.0944
     12 CAL        -2.5889  -21.3226  -20.0974 C.3         1 DSK       0.1385
     13 CAM        -3.8868  -23.7378  -19.6758 C.3         1 DSK       0.1386
     14 CAN        -2.1636  -15.3718  -19.0742 C.3         1 DSK       0.1065
     15 CAO        -1.2433  -20.5321  -20.0276 C.3         1 DSK       0.1280
     16 CAP        -5.2604  -23.2466  -19.1860 C.3         1 DSK       0.1303
     17 CAQ        -2.2869  -16.6209  -20.0365 C.3         1 DSK       0.1114
     18 CAR        -1.3157  -19.0489  -20.5336 C.3         1 DSK       0.1137
     19 CAS        -1.8715  -18.0279  -19.4787 C.3         1 DSK       0.1119
     20 CAT        -5.0582  -22.9082  -17.6985 C.3         1 DSK       0.1349
     21 CAU        -3.7528  -22.0692  -17.6132 C.3         1 DSK       0.1711
     22 SAV        -2.6169  -22.7026  -18.8974 S.3         1 DSK       0.0029
     23 H1         -0.0573  -14.8373  -17.3066 H           1 DSK       0.2095
     24 H2         -3.4475  -21.3159  -14.4594 H           1 DSK       0.2096
     25 H3         -3.2207  -13.8412  -18.5389 H           1 DSK       0.2100
     26 H4          0.5786  -20.8530  -20.6034 H           1 DSK       0.2101
     27 H5         -6.4085  -24.2867  -20.3337 H           1 DSK       0.2101
     28 H6         -2.1347  -15.6585  -21.7070 H           1 DSK       0.2100
     29 H7         -1.3482  -19.2989  -22.4255 H           1 DSK       0.2100
     30 H8         -2.6313  -19.1946  -18.1319 H           1 DSK       0.2100
     31 H9         -6.0433  -22.1561  -16.2167 H           1 DSK       0.2101
     32 H10        -2.0918  -14.7822  -16.9644 H           1 DSK       0.0584
     33 H11        -2.2751  -16.5108  -17.2049 H           1 DSK       0.0584
     34 H12        -3.2023  -23.0729  -15.7446 H           1 DSK       0.0608
     35 H13        -2.0482  -21.8331  -16.2780 H           1 DSK       0.0608
     36 H14        -2.6894  -21.7290  -21.1085 H           1 DSK       0.0867
     37 H15        -3.4405  -20.6595  -19.9487 H           1 DSK       0.0867
     38 H16        -3.8294  -23.7237  -20.7666 H           1 DSK       0.0867
     39 H17        -3.7247  -24.7676  -19.3403 H           1 DSK       0.0867
     40 H18        -1.4084  -14.6877  -19.4764 H           1 DSK       0.0643
     41 H19        -0.8731  -20.5257  -18.9959 H           1 DSK       0.0667
     42 H20        -5.5511  -22.3449  -19.7361 H           1 DSK       0.0668
     43 H21        -3.3407  -16.7209  -20.3374 H           1 DSK       0.0647
     44 H22        -0.2914  -18.7232  -20.7474 H           1 DSK       0.0647
     45 H23        -1.0654  -17.8871  -18.7554 H           1 DSK       0.0647
     46 H24        -4.9473  -23.8443  -17.1363 H           1 DSK       0.0672
     47 H25        -4.0036  -21.0293  -17.8340 H           1 DSK       0.0928
@<TRIPOS>BOND
     1    10     1   1
     2    11     2   1
     3    14     3   1
     4    15     4   1
     5    16     5   1
     6    17     6   1
     7    18     7   1
     8    19     8   1
     9    20     9   1
    10    14    10   1
    11    21    11   1
    12    12    15   1
    13    22    12   1
    14    16    13   1
    15    13    22   1
    16    17    14   1
    17    15    18   1
    18    20    16   1
    19    19    17   1
    20    18    19   1
    21    20    21   1
    22    21    22   1
    23     1    23   1
    24     2    24   1
    25     3    25   1
    26     4    26   1
    27     5    27   1
    28     6    28   1
    29     7    29   1
    30     8    30   1
    31     9    31   1
    32    10    32   1
    33    10    33   1
    34    11    34   1
    35    11    35   1
    36    12    36   1
    37    12    37   1
    38    13    38   1
    39    13    39   1
    40    14    40   1
    41    15    41   1
    42    16    42   1
    43    17    43   1
    44    18    44   1
    45    19    45   1
    46    20    46   1
    47    21    47   1
@<TRIPOS>SUBSTRUCTURE
     1  DSK     10

