@<TRIPOS>MOLECULE
3l4u_ligand_004
    47    47
SMALL
GAST_HUCK
****
This file was generated by PARSER (from files_GN.cpp)

@<TRIPOS>ATOM
      1 OAA        -1.0239  -16.1303  -22.0833 O.3         1 DSK      -0.3924
      2 OAB        -5.3585  -21.7230  -20.3219 O.3         1 DSK      -0.3900
      3 OAC         1.9291  -15.5867  -20.9623 O.3         1 DSK      -0.3869
      4 OAD        -0.9864  -18.4264  -18.1666 O.3         1 DSK      -0.3845
      5 OAE        -2.6263  -22.9090  -21.6594 O.3         1 DSK      -0.3844
      6 OAF        -1.1418  -13.6992  -20.1282 O.3         1 DSK      -0.3865
      7 OAG        -2.1859  -15.5941  -17.4603 O.3         1 DSK      -0.3864
      8 OAH         0.4076  -15.6957  -17.7488 O.3         1 DSK      -0.3865
      9 OAI        -2.4785  -19.7309  -23.4610 O.3         1 DSK      -0.3840
     10 CAJ         0.0061  -15.1896  -22.4066 C.3         1 DSK       0.0727
     11 CAK        -5.3872  -20.7143  -21.3380 C.3         1 DSK       0.0944
     12 CAL        -2.4640  -18.2261  -20.1014 C.3         1 DSK       0.1385
     13 CAM        -1.6532  -20.8794  -20.6766 C.3         1 DSK       0.1386
     14 CAN         0.8269  -14.7145  -21.1724 C.3         1 DSK       0.1065
     15 CAO        -2.0770  -17.6825  -18.6980 C.3         1 DSK       0.1280
     16 CAP        -2.0950  -21.6126  -21.9604 C.3         1 DSK       0.1303
     17 CAQ         0.0137  -14.4874  -19.8612 C.3         1 DSK       0.1114
     18 CAR        -1.7678  -16.1508  -18.7181 C.3         1 DSK       0.1137
     19 CAS        -0.2716  -15.7819  -19.0053 C.3         1 DSK       0.1119
     20 CAT        -3.1369  -20.7224  -22.6724 C.3         1 DSK       0.1349
     21 CAU        -4.0181  -20.0376  -21.5974 C.3         1 DSK       0.1711
     22 SAV        -3.0765  -19.9453  -20.0494 S.3         1 DSK       0.0029
     23 H1         -1.8464  -15.6808  -22.3906 H           1 DSK       0.2095
     24 H2         -6.3085  -21.9001  -20.1288 H           1 DSK       0.2096
     25 H3          1.6906  -16.4540  -21.3655 H           1 DSK       0.2100
     26 H4         -1.3560  -19.2951  -17.9025 H           1 DSK       0.2101
     27 H5         -3.4049  -22.7375  -21.0928 H           1 DSK       0.2101
     28 H6         -1.6906  -14.1960  -20.7702 H           1 DSK       0.2100
     29 H7         -1.8992  -14.6610  -17.4517 H           1 DSK       0.2100
     30 H8          1.2380  -15.2024  -17.9318 H           1 DSK       0.2100
     31 H9         -2.1990  -20.2094  -24.2728 H           1 DSK       0.2101
     32 H10        -0.4435  -14.3245  -22.9093 H           1 DSK       0.0584
     33 H11         0.6817  -15.6799  -23.1338 H           1 DSK       0.0584
     34 H12        -6.1215  -19.9526  -21.0363 H           1 DSK       0.0608
     35 H13        -5.7557  -21.1680  -22.2684 H           1 DSK       0.0608
     36 H14        -1.6170  -18.1314  -20.8030 H           1 DSK       0.0867
     37 H15        -3.2676  -17.5883  -20.4865 H           1 DSK       0.0867
     38 H16        -0.7998  -20.2384  -20.9052 H           1 DSK       0.0867
     39 H17        -1.3327  -21.5992  -19.9248 H           1 DSK       0.0867
     40 H18         1.2731  -13.7634  -21.4505 H           1 DSK       0.0643
     41 H19        -2.9347  -17.8502  -18.0434 H           1 DSK       0.0667
     42 H20        -1.2331  -21.7799  -22.6227 H           1 DSK       0.0668
     43 H21         0.6230  -13.8264  -19.2481 H           1 DSK       0.0647
     44 H22        -2.4149  -15.6963  -19.4684 H           1 DSK       0.0647
     45 H23         0.1910  -16.6384  -19.5172 H           1 DSK       0.0647
     46 H24        -3.7503  -21.3274  -23.3526 H           1 DSK       0.0672
     47 H25        -4.2575  -19.0425  -21.9452 H           1 DSK       0.0928
@<TRIPOS>BOND
     1    10     1   1
     2    11     2   1
     3    14     3   1
     4    15     4   1
     5    16     5   1
     6    17     6   1
     7    18     7   1
     8    19     8   1
     9    20     9   1
    10    14    10   1
    11    21    11   1
    12    12    15   1
    13    22    12   1
    14    16    13   1
    15    13    22   1
    16    17    14   1
    17    15    18   1
    18    20    16   1
    19    19    17   1
    20    18    19   1
    21    20    21   1
    22    21    22   1
    23     1    23   1
    24     2    24   1
    25     3    25   1
    26     4    26   1
    27     5    27   1
    28     6    28   1
    29     7    29   1
    30     8    30   1
    31     9    31   1
    32    10    32   1
    33    10    33   1
    34    11    34   1
    35    11    35   1
    36    12    36   1
    37    12    37   1
    38    13    38   1
    39    13    39   1
    40    14    40   1
    41    15    41   1
    42    16    42   1
    43    17    43   1
    44    18    44   1
    45    19    45   1
    46    20    46   1
    47    21    47   1
@<TRIPOS>SUBSTRUCTURE
     1  DSK     10

