@<TRIPOS>MOLECULE
3l4u_ligand_043
    47    47
SMALL
GAST_HUCK
****
This file was generated by PARSER (from files_GN.cpp)

@<TRIPOS>ATOM
      1 OAA        -3.1162  -19.4551  -23.3217 O.3         1 DSK      -0.3924
      2 OAB         0.8029  -15.3230  -17.7674 O.3         1 DSK      -0.3900
      3 OAC        -3.4673  -22.4398  -23.4665 O.3         1 DSK      -0.3869
      4 OAD        -2.2040  -20.2126  -17.4574 O.3         1 DSK      -0.3845
      5 OAE        -3.7444  -14.6649  -19.6161 O.3         1 DSK      -0.3844
      6 OAF        -2.6323  -23.7913  -21.1276 O.3         1 DSK      -0.3865
      7 OAG        -0.7193  -22.4771  -18.9684 O.3         1 DSK      -0.3864
      8 OAH        -3.3746  -22.8008  -18.6136 O.3         1 DSK      -0.3865
      9 OAI        -1.7919  -16.5486  -21.7455 O.3         1 DSK      -0.3840
     10 CAJ        -3.7378  -20.2994  -22.3595 C.3         1 DSK       0.0727
     11 CAK         0.1048  -14.9643  -18.9578 C.3         1 DSK       0.0944
     12 CAL        -1.5813  -18.8213  -19.3974 C.3         1 DSK       0.1385
     13 CAM        -2.7380  -16.4984  -18.3518 C.3         1 DSK       0.1386
     14 CAN        -3.0477  -21.6925  -22.3183 C.3         1 DSK       0.1065
     15 CAO        -1.3552  -20.1423  -18.6060 C.3         1 DSK       0.1280
     16 CAP        -3.0560  -15.9117  -19.7462 C.3         1 DSK       0.1303
     17 CAQ        -3.3479  -22.5540  -21.0458 C.3         1 DSK       0.1114
     18 CAR        -1.5312  -21.4174  -19.4877 C.3         1 DSK       0.1137
     19 CAS        -3.0167  -21.8993  -19.6676 C.3         1 DSK       0.1119
     20 CAT        -1.7344  -15.7632  -20.5533 C.3         1 DSK       0.1349
     21 CAU        -0.5430  -16.1930  -19.6569 C.3         1 DSK       0.1711
     22 SAV        -1.1466  -17.3551  -18.4028 S.3         1 DSK       0.0029
     23 H1         -3.2605  -19.9053  -24.1745 H           1 DSK       0.2095
     24 H2          0.6300  -14.5675  -17.1652 H           1 DSK       0.2096
     25 H3         -3.0283  -22.0110  -24.2323 H           1 DSK       0.2100
     26 H4         -3.0942  -19.9420  -17.7719 H           1 DSK       0.2101
     27 H5         -3.7129  -14.2679  -20.5134 H           1 DSK       0.2101
     28 H6         -3.0089  -24.2620  -21.9029 H           1 DSK       0.2100
     29 H7         -1.0007  -22.6052  -18.0333 H           1 DSK       0.2100
     30 H8         -2.8773  -23.6314  -18.8039 H           1 DSK       0.2100
     31 H9         -2.2226  -15.9461  -22.3915 H           1 DSK       0.2101
     32 H10        -4.7986  -20.4063  -22.6017 H           1 DSK       0.0584
     33 H11        -3.6509  -19.7869  -21.4035 H           1 DSK       0.0584
     34 H12         0.8163  -14.4779  -19.6321 H           1 DSK       0.0608
     35 H13        -0.6641  -14.2307  -18.6949 H           1 DSK       0.0608
     36 H14        -2.6195  -18.7626  -19.7222 H           1 DSK       0.0867
     37 H15        -0.9609  -18.8450  -20.2969 H           1 DSK       0.0867
     38 H16        -3.5254  -17.1705  -18.0051 H           1 DSK       0.0867
     39 H17        -2.6488  -15.6960  -17.6151 H           1 DSK       0.0867
     40 H18        -1.9667  -21.5528  -22.4177 H           1 DSK       0.0643
     41 H19        -0.3255  -20.1277  -18.2388 H           1 DSK       0.0667
     42 H20        -3.7431  -16.5914  -20.2677 H           1 DSK       0.0668
     43 H21        -4.4148  -22.7985  -21.0490 H           1 DSK       0.0647
     44 H22        -1.0938  -21.1920  -20.4565 H           1 DSK       0.0647
     45 H23        -3.6980  -21.0629  -19.5323 H           1 DSK       0.0647
     46 H24        -1.6069  -14.7312  -20.8830 H           1 DSK       0.0672
     47 H25         0.2349  -16.6769  -20.2499 H           1 DSK       0.0928
@<TRIPOS>BOND
     1    10     1   1
     2    11     2   1
     3    14     3   1
     4    15     4   1
     5    16     5   1
     6    17     6   1
     7    18     7   1
     8    19     8   1
     9    20     9   1
    10    14    10   1
    11    21    11   1
    12    12    15   1
    13    22    12   1
    14    16    13   1
    15    13    22   1
    16    17    14   1
    17    15    18   1
    18    20    16   1
    19    19    17   1
    20    18    19   1
    21    20    21   1
    22    21    22   1
    23     1    23   1
    24     2    24   1
    25     3    25   1
    26     4    26   1
    27     5    27   1
    28     6    28   1
    29     7    29   1
    30     8    30   1
    31     9    31   1
    32    10    32   1
    33    10    33   1
    34    11    34   1
    35    11    35   1
    36    12    36   1
    37    12    37   1
    38    13    38   1
    39    13    39   1
    40    14    40   1
    41    15    41   1
    42    16    42   1
    43    17    43   1
    44    18    44   1
    45    19    45   1
    46    20    46   1
    47    21    47   1
@<TRIPOS>SUBSTRUCTURE
     1  DSK     10

