@<TRIPOS>MOLECULE
3l4u_ligand_076
    47    47
SMALL
GAST_HUCK
****
This file was generated by PARSER (from files_GN.cpp)

@<TRIPOS>ATOM
      1 OAA        -0.0476  -15.1147  -23.2965 O.3         1 DSK      -0.3924
      2 OAB        -1.9999  -24.5910  -16.4800 O.3         1 DSK      -0.3900
      3 OAC         2.2602  -15.4368  -21.7452 O.3         1 DSK      -0.3869
      4 OAD        -2.0977  -17.2972  -18.0038 O.3         1 DSK      -0.3845
      5 OAE        -4.7227  -23.4331  -19.3500 O.3         1 DSK      -0.3844
      6 OAF         0.3785  -15.8464  -18.9330 O.3         1 DSK      -0.3865
      7 OAG        -1.7856  -19.0368  -21.1931 O.3         1 DSK      -0.3864
      8 OAH        -1.3541  -16.6207  -22.0348 O.3         1 DSK      -0.3865
      9 OAI        -4.3261  -21.2128  -16.5290 O.3         1 DSK      -0.3840
     10 CAJ         0.2146  -14.2619  -22.1773 C.3         1 DSK       0.0727
     11 CAK        -1.7899  -23.7874  -17.6384 C.3         1 DSK       0.0944
     12 CAL        -1.8838  -19.6703  -18.0361 C.3         1 DSK       0.1385
     13 CAM        -3.4399  -21.3654  -19.6637 C.3         1 DSK       0.1386
     14 CAN         1.0493  -14.9997  -21.1116 C.3         1 DSK       0.1065
     15 CAO        -2.1843  -18.4084  -18.9017 C.3         1 DSK       0.1280
     16 CAP        -4.4609  -22.1384  -18.7920 C.3         1 DSK       0.1303
     17 CAQ         0.3866  -16.1987  -20.3163 C.3         1 DSK       0.1114
     18 CAR        -1.2617  -18.2144  -20.1435 C.3         1 DSK       0.1137
     19 CAS        -1.0529  -16.7257  -20.6428 C.3         1 DSK       0.1119
     20 CAT        -3.9038  -22.2956  -17.3598 C.3         1 DSK       0.1349
     21 CAU        -2.3542  -22.3519  -17.4482 C.3         1 DSK       0.1711
     22 SAV        -1.8296  -21.3019  -18.8423 S.3         1 DSK       0.0029
     23 H1         -0.7555  -14.6591  -23.8075 H           1 DSK       0.2095
     24 H2         -2.9200  -24.9084  -16.5413 H           1 DSK       0.2096
     25 H3          2.1817  -16.4173  -21.7913 H           1 DSK       0.2100
     26 H4         -2.9558  -16.8274  -18.0610 H           1 DSK       0.2101
     27 H5         -5.2164  -23.2579  -20.1829 H           1 DSK       0.2101
     28 H6          1.2499  -15.4035  -18.7579 H           1 DSK       0.2100
     29 H7         -1.0783  -19.1008  -21.8632 H           1 DSK       0.2100
     30 H8         -1.8839  -15.7930  -22.1240 H           1 DSK       0.2100
     31 H9         -5.2924  -21.3354  -16.4130 H           1 DSK       0.2101
     32 H10        -0.7280  -13.9104  -21.7443 H           1 DSK       0.0584
     33 H11         0.7649  -13.3694  -22.5208 H           1 DSK       0.0584
     34 H12        -2.2505  -24.2790  -18.4997 H           1 DSK       0.0608
     35 H13        -0.7072  -23.7462  -17.8088 H           1 DSK       0.0608
     36 H14        -2.6160  -19.6842  -17.2349 H           1 DSK       0.0867
     37 H15        -0.8958  -19.5254  -17.5854 H           1 DSK       0.0867
     38 H16        -3.8003  -20.3605  -19.8730 H           1 DSK       0.0867
     39 H17        -3.2998  -21.8667  -20.6215 H           1 DSK       0.0867
     40 H18         1.3507  -14.2258  -20.4044 H           1 DSK       0.0643
     41 H19        -3.2240  -18.4671  -19.2573 H           1 DSK       0.0667
     42 H20        -5.4140  -21.6020  -18.7701 H           1 DSK       0.0668
     43 H21         1.0644  -17.0494  -20.4100 H           1 DSK       0.0647
     44 H22        -0.2968  -18.6657  -19.8830 H           1 DSK       0.0647
     45 H23        -1.7552  -16.0643  -20.1330 H           1 DSK       0.0647
     46 H24        -4.3033  -23.1996  -16.8979 H           1 DSK       0.0672
     47 H25        -1.9125  -21.9609  -16.5218 H           1 DSK       0.0928
@<TRIPOS>BOND
     1    10     1   1
     2    11     2   1
     3    14     3   1
     4    15     4   1
     5    16     5   1
     6    17     6   1
     7    18     7   1
     8    19     8   1
     9    20     9   1
    10    14    10   1
    11    21    11   1
    12    12    15   1
    13    22    12   1
    14    16    13   1
    15    13    22   1
    16    17    14   1
    17    15    18   1
    18    20    16   1
    19    19    17   1
    20    18    19   1
    21    20    21   1
    22    21    22   1
    23     1    23   1
    24     2    24   1
    25     3    25   1
    26     4    26   1
    27     5    27   1
    28     6    28   1
    29     7    29   1
    30     8    30   1
    31     9    31   1
    32    10    32   1
    33    10    33   1
    34    11    34   1
    35    11    35   1
    36    12    36   1
    37    12    37   1
    38    13    38   1
    39    13    39   1
    40    14    40   1
    41    15    41   1
    42    16    42   1
    43    17    43   1
    44    18    44   1
    45    19    45   1
    46    20    46   1
    47    21    47   1
@<TRIPOS>SUBSTRUCTURE
     1  DSK     10

