@<TRIPOS>MOLECULE
3l4u_ligand_059
    47    47
SMALL
GAST_HUCK
****
This file was generated by PARSER (from files_GN.cpp)

@<TRIPOS>ATOM
      1 OAA        -0.7538  -20.3812  -17.4087 O.3         1 DSK      -0.3924
      2 OAB         2.6382  -15.4468  -21.9044 O.3         1 DSK      -0.3900
      3 OAC        -0.2758  -22.6845  -18.7734 O.3         1 DSK      -0.3869
      4 OAD        -3.3957  -17.2426  -20.6140 O.3         1 DSK      -0.3845
      5 OAE        -2.6997  -13.7791  -19.3708 O.3         1 DSK      -0.3844
      6 OAF        -0.8817  -22.1857  -21.3869 O.3         1 DSK      -0.3865
      7 OAG        -2.5083  -19.4135  -22.9101 O.3         1 DSK      -0.3864
      8 OAH        -3.9948  -21.0840  -20.0454 O.3         1 DSK      -0.3865
      9 OAI        -0.8052  -13.3654  -21.7168 O.3         1 DSK      -0.3840
     10 CAJ        -1.8688  -21.1713  -17.8159 C.3         1 DSK       0.0727
     11 CAK         1.8814  -15.0424  -20.7649 C.3         1 DSK       0.0944
     12 CAL        -1.0740  -17.7966  -21.0781 C.3         1 DSK       0.1385
     13 CAM        -1.4367  -15.8443  -19.0236 C.3         1 DSK       0.1386
     14 CAN        -1.5476  -22.0783  -19.0425 C.3         1 DSK       0.1065
     15 CAO        -2.4744  -18.3384  -20.6484 C.3         1 DSK       0.1280
     16 CAP        -1.8771  -14.7531  -20.0064 C.3         1 DSK       0.1303
     17 CAQ        -1.5294  -21.3361  -20.4296 C.3         1 DSK       0.1114
     18 CAR        -3.0448  -19.4770  -21.5841 C.3         1 DSK       0.1137
     19 CAS        -2.9414  -20.9250  -21.0007 C.3         1 DSK       0.1119
     20 CAT        -0.5664  -14.1718  -20.5635 C.3         1 DSK       0.1349
     21 CAU         0.3652  -15.3709  -20.9157 C.3         1 DSK       0.1711
     22 SAV        -0.1428  -16.7850  -19.8652 S.3         1 DSK       0.0029
     23 H1         -0.6412  -19.7074  -18.1119 H           1 DSK       0.2095
     24 H2          2.4970  -16.4121  -21.9873 H           1 DSK       0.2096
     25 H3         -0.1778  -23.3828  -19.4563 H           1 DSK       0.2100
     26 H4         -3.6489  -17.0811  -21.5494 H           1 DSK       0.2101
     27 H5         -2.2739  -13.5663  -18.5153 H           1 DSK       0.2101
     28 H6         -0.4084  -21.5702  -21.9828 H           1 DSK       0.2100
     29 H7         -1.6282  -19.8396  -22.8620 H           1 DSK       0.2100
     30 H8         -4.8277  -21.0668  -20.5638 H           1 DSK       0.2100
     31 H9         -1.4195  -12.6602  -21.4260 H           1 DSK       0.2101
     32 H10        -2.7106  -20.5082  -18.0173 H           1 DSK       0.0584
     33 H11        -2.1498  -21.8107  -16.9697 H           1 DSK       0.0584
     34 H12         2.0333  -13.9614  -20.6668 H           1 DSK       0.0608
     35 H13         2.3014  -15.5216  -19.8760 H           1 DSK       0.0608
     36 H14        -1.1968  -17.2745  -22.0363 H           1 DSK       0.0867
     37 H15        -0.4203  -18.6587  -21.2434 H           1 DSK       0.0867
     38 H16        -2.2691  -16.4718  -18.7057 H           1 DSK       0.0867
     39 H17        -0.9898  -15.3905  -18.1319 H           1 DSK       0.0867
     40 H18        -2.2918  -22.8872  -19.0792 H           1 DSK       0.0643
     41 H19        -2.4111  -18.7171  -19.6281 H           1 DSK       0.0667
     42 H20        -2.4669  -15.2130  -20.8028 H           1 DSK       0.0668
     43 H21        -0.8825  -20.4495  -20.3279 H           1 DSK       0.0647
     44 H22        -4.1118  -19.2878  -21.7376 H           1 DSK       0.0647
     45 H23        -3.2004  -21.6204  -21.8096 H           1 DSK       0.0647
     46 H24        -0.1100  -13.5491  -19.7912 H           1 DSK       0.0672
     47 H25         0.2012  -15.6208  -21.9680 H           1 DSK       0.0928
@<TRIPOS>BOND
     1    10     1   1
     2    11     2   1
     3    14     3   1
     4    15     4   1
     5    16     5   1
     6    17     6   1
     7    18     7   1
     8    19     8   1
     9    20     9   1
    10    14    10   1
    11    21    11   1
    12    12    15   1
    13    22    12   1
    14    16    13   1
    15    13    22   1
    16    17    14   1
    17    15    18   1
    18    20    16   1
    19    19    17   1
    20    18    19   1
    21    20    21   1
    22    21    22   1
    23     1    23   1
    24     2    24   1
    25     3    25   1
    26     4    26   1
    27     5    27   1
    28     6    28   1
    29     7    29   1
    30     8    30   1
    31     9    31   1
    32    10    32   1
    33    10    33   1
    34    11    34   1
    35    11    35   1
    36    12    36   1
    37    12    37   1
    38    13    38   1
    39    13    39   1
    40    14    40   1
    41    15    41   1
    42    16    42   1
    43    17    43   1
    44    18    44   1
    45    19    45   1
    46    20    46   1
    47    21    47   1
@<TRIPOS>SUBSTRUCTURE
     1  DSK     10

