@<TRIPOS>MOLECULE
3l4u_ligand_018
    47    47
SMALL
GAST_HUCK
****
This file was generated by PARSER (from files_GN.cpp)

@<TRIPOS>ATOM
      1 OAA        -0.9148  -15.9557  -22.2408 O.3         1 DSK      -0.3924
      2 OAB        -3.0127  -19.6982  -23.5917 O.3         1 DSK      -0.3900
      3 OAC         1.5912  -16.1324  -20.3436 O.3         1 DSK      -0.3869
      4 OAD        -1.2970  -18.1041  -21.5079 O.3         1 DSK      -0.3845
      5 OAE        -4.8673  -22.7473  -20.2681 O.3         1 DSK      -0.3844
      6 OAF        -1.3918  -14.0355  -19.9248 O.3         1 DSK      -0.3865
      7 OAG        -2.4770  -17.7315  -18.2555 O.3         1 DSK      -0.3864
      8 OAH        -1.5251  -15.4546  -17.5660 O.3         1 DSK      -0.3865
      9 OAI        -1.3677  -23.2732  -21.2475 O.3         1 DSK      -0.3840
     10 CAJ         0.1607  -15.0741  -22.0917 C.3         1 DSK       0.0727
     11 CAK        -3.6039  -20.6931  -22.7560 C.3         1 DSK       0.0944
     12 CAL        -1.1695  -19.7419  -19.6862 C.3         1 DSK       0.1385
     13 CAM        -2.9232  -21.8291  -19.1038 C.3         1 DSK       0.1386
     14 CAN         0.7440  -15.0231  -20.6566 C.3         1 DSK       0.1065
     15 CAO        -0.9519  -18.2570  -20.1332 C.3         1 DSK       0.1280
     16 CAP        -3.4611  -22.9050  -20.0590 C.3         1 DSK       0.1303
     17 CAQ        -0.2772  -14.8095  -19.4913 C.3         1 DSK       0.1114
     18 CAR        -1.6896  -17.1355  -19.3016 C.3         1 DSK       0.1137
     19 CAS        -0.7904  -16.0360  -18.6470 C.3         1 DSK       0.1119
     20 CAT        -2.6823  -22.7212  -21.3779 C.3         1 DSK       0.1349
     21 CAU        -2.5919  -21.1973  -21.6757 C.3         1 DSK       0.1711
     22 SAV        -2.8484  -20.3181  -20.0904 S.3         1 DSK       0.0029
     23 H1         -1.6273  -15.4221  -22.7023 H           1 DSK       0.2095
     24 H2         -2.5901  -20.2043  -24.3179 H           1 DSK       0.2096
     25 H3          1.6845  -16.6724  -21.1588 H           1 DSK       0.2100
     26 H4         -0.4957  -18.3715  -22.0165 H           1 DSK       0.2101
     27 H5         -4.9919  -21.8121  -20.5350 H           1 DSK       0.2101
     28 H6         -1.0062  -13.2644  -20.3945 H           1 DSK       0.2100
     29 H7         -3.1201  -18.3228  -18.7043 H           1 DSK       0.2100
     30 H8         -0.9179  -14.8121  -17.1293 H           1 DSK       0.2100
     31 H9         -1.4962  -24.2431  -21.1805 H           1 DSK       0.2101
     32 H10        -0.1655  -14.0489  -22.3527 H           1 DSK       0.0584
     33 H11         0.9413  -15.3249  -22.7980 H           1 DSK       0.0584
     34 H12        -3.9249  -21.5033  -23.4135 H           1 DSK       0.0608
     35 H13        -4.4999  -20.2689  -22.3016 H           1 DSK       0.0608
     36 H14        -1.0141  -19.8129  -18.6043 H           1 DSK       0.0867
     37 H15        -0.4288  -20.3910  -20.1559 H           1 DSK       0.0867
     38 H16        -1.9363  -22.1194  -18.7272 H           1 DSK       0.0867
     39 H17        -3.5947  -21.6805  -18.2537 H           1 DSK       0.0867
     40 H18         1.4346  -14.1737  -20.6382 H           1 DSK       0.0643
     41 H19         0.1246  -18.0859  -20.0776 H           1 DSK       0.0667
     42 H20        -3.2933  -23.8980  -19.6424 H           1 DSK       0.0668
     43 H21         0.2401  -14.1665  -18.7689 H           1 DSK       0.0647
     44 H22        -2.4125  -16.6237  -19.9466 H           1 DSK       0.0647
     45 H23         0.0595  -16.5251  -18.1736 H           1 DSK       0.0647
     46 H24        -3.1781  -23.2742  -22.1794 H           1 DSK       0.0672
     47 H25        -1.5914  -20.9849  -22.0604 H           1 DSK       0.0928
@<TRIPOS>BOND
     1    10     1   1
     2    11     2   1
     3    14     3   1
     4    15     4   1
     5    16     5   1
     6    17     6   1
     7    18     7   1
     8    19     8   1
     9    20     9   1
    10    14    10   1
    11    21    11   1
    12    12    15   1
    13    22    12   1
    14    16    13   1
    15    13    22   1
    16    17    14   1
    17    15    18   1
    18    20    16   1
    19    19    17   1
    20    18    19   1
    21    20    21   1
    22    21    22   1
    23     1    23   1
    24     2    24   1
    25     3    25   1
    26     4    26   1
    27     5    27   1
    28     6    28   1
    29     7    29   1
    30     8    30   1
    31     9    31   1
    32    10    32   1
    33    10    33   1
    34    11    34   1
    35    11    35   1
    36    12    36   1
    37    12    37   1
    38    13    38   1
    39    13    39   1
    40    14    40   1
    41    15    41   1
    42    16    42   1
    43    17    43   1
    44    18    44   1
    45    19    45   1
    46    20    46   1
    47    21    47   1
@<TRIPOS>SUBSTRUCTURE
     1  DSK     10

