@<TRIPOS>MOLECULE
3l4u_ligand_050
    47    47
SMALL
GAST_HUCK
****
This file was generated by PARSER (from files_GN.cpp)

@<TRIPOS>ATOM
      1 OAA        -3.0114  -16.8650  -20.1713 O.3         1 DSK      -0.3924
      2 OAB        -0.5432  -26.4246  -24.6331 O.3         1 DSK      -0.3900
      3 OAC        -1.1069  -18.0404  -22.0615 O.3         1 DSK      -0.3869
      4 OAD        -3.4542  -22.7634  -20.9312 O.3         1 DSK      -0.3845
      5 OAE         1.4439  -23.3918  -22.8503 O.3         1 DSK      -0.3844
      6 OAF        -2.7587  -20.3060  -19.6547 O.3         1 DSK      -0.3865
      7 OAG        -5.4744  -20.8224  -20.8220 O.3         1 DSK      -0.3864
      8 OAH        -3.1250  -19.3496  -23.2099 O.3         1 DSK      -0.3865
      9 OAI        -0.0741  -22.1337  -25.4732 O.3         1 DSK      -0.3840
     10 CAJ        -1.8142  -17.5320  -19.7857 C.3         1 DSK       0.0727
     11 CAK        -1.2924  -25.5734  -25.5014 C.3         1 DSK       0.0944
     12 CAL        -3.1395  -22.5367  -23.3560 C.3         1 DSK       0.1385
     13 CAM        -0.8915  -23.9866  -22.4379 C.3         1 DSK       0.1386
     14 CAN        -1.3919  -18.6333  -20.7924 C.3         1 DSK       0.1065
     15 CAO        -4.0759  -22.3186  -22.1387 C.3         1 DSK       0.1280
     16 CAP         0.0976  -23.1084  -23.2278 C.3         1 DSK       0.1303
     17 CAQ        -2.3573  -19.8529  -20.9492 C.3         1 DSK       0.1114
     18 CAR        -4.6190  -20.8593  -21.9686 C.3         1 DSK       0.1137
     19 CAS        -3.5924  -19.6708  -21.8956 C.3         1 DSK       0.1119
     20 CAT        -0.1302  -23.3611  -24.7415 C.3         1 DSK       0.1349
     21 CAU        -1.4708  -24.1287  -24.9576 C.3         1 DSK       0.1711
     22 SAV        -2.4086  -24.2063  -23.4030 S.3         1 DSK       0.0029
     23 H1         -2.7718  -16.3817  -20.9955 H           1 DSK       0.2095
     24 H2          0.3493  -26.0258  -24.5637 H           1 DSK       0.2096
     25 H3         -0.2001  -17.6541  -21.9841 H           1 DSK       0.2100
     26 H4         -4.1809  -22.8380  -20.2651 H           1 DSK       0.2101
     27 H5          1.4812  -23.2268  -21.8826 H           1 DSK       0.2101
     28 H6         -3.3336  -19.5965  -19.3009 H           1 DSK       0.2100
     29 H7         -4.8806  -20.9678  -20.0581 H           1 DSK       0.2100
     30 H8         -3.6467  -19.8851  -23.8472 H           1 DSK       0.2100
     31 H9         -0.9027  -21.6560  -25.2654 H           1 DSK       0.2101
     32 H10        -1.9519  -17.9602  -18.7944 H           1 DSK       0.0584
     33 H11        -1.0244  -16.7811  -19.7145 H           1 DSK       0.0584
     34 H12        -2.2742  -26.0255  -25.6498 H           1 DSK       0.0608
     35 H13        -0.7941  -25.5446  -26.4700 H           1 DSK       0.0608
     36 H14        -2.3531  -21.7872  -23.3919 H           1 DSK       0.0867
     37 H15        -3.7364  -22.4175  -24.2622 H           1 DSK       0.0867
     38 H16        -1.0940  -23.5544  -21.4564 H           1 DSK       0.0867
     39 H17        -0.4655  -24.9789  -22.2770 H           1 DSK       0.0867
     40 H18        -0.4441  -19.0312  -20.4265 H           1 DSK       0.0643
     41 H19        -4.9424  -22.9657  -22.2917 H           1 DSK       0.0667
     42 H20        -0.0859  -22.0586  -22.9912 H           1 DSK       0.0668
     43 H21        -1.7526  -20.6581  -21.3704 H           1 DSK       0.0647
     44 H22        -5.2946  -20.6612  -22.8120 H           1 DSK       0.0647
     45 H23        -4.1507  -18.8008  -21.5552 H           1 DSK       0.0647
     46 H24         0.6981  -23.9562  -25.1224 H           1 DSK       0.0672
     47 H25        -2.0762  -23.5957  -25.6966 H           1 DSK       0.0928
@<TRIPOS>BOND
     1    10     1   1
     2    11     2   1
     3    14     3   1
     4    15     4   1
     5    16     5   1
     6    17     6   1
     7    18     7   1
     8    19     8   1
     9    20     9   1
    10    14    10   1
    11    21    11   1
    12    12    15   1
    13    22    12   1
    14    16    13   1
    15    13    22   1
    16    17    14   1
    17    15    18   1
    18    20    16   1
    19    19    17   1
    20    18    19   1
    21    20    21   1
    22    21    22   1
    23     1    23   1
    24     2    24   1
    25     3    25   1
    26     4    26   1
    27     5    27   1
    28     6    28   1
    29     7    29   1
    30     8    30   1
    31     9    31   1
    32    10    32   1
    33    10    33   1
    34    11    34   1
    35    11    35   1
    36    12    36   1
    37    12    37   1
    38    13    38   1
    39    13    39   1
    40    14    40   1
    41    15    41   1
    42    16    42   1
    43    17    43   1
    44    18    44   1
    45    19    45   1
    46    20    46   1
    47    21    47   1
@<TRIPOS>SUBSTRUCTURE
     1  DSK     10

