@<TRIPOS>MOLECULE
3l4u_ligand_068
    47    47
SMALL
GAST_HUCK
****
This file was generated by PARSER (from files_GN.cpp)

@<TRIPOS>ATOM
      1 OAA        -1.2739  -20.4136  -16.9501 O.3         1 DSK      -0.3924
      2 OAB        -1.4938  -15.6513  -17.6476 O.3         1 DSK      -0.3900
      3 OAC        -4.0711  -20.6646  -16.9800 O.3         1 DSK      -0.3869
      4 OAD        -2.7845  -18.4809  -22.5102 O.3         1 DSK      -0.3845
      5 OAE        -1.1797  -13.9105  -21.6076 O.3         1 DSK      -0.3844
      6 OAF        -5.4156  -22.0944  -18.7221 O.3         1 DSK      -0.3865
      7 OAG        -1.7724  -21.3238  -21.0824 O.3         1 DSK      -0.3864
      8 OAH        -5.4229  -20.6389  -20.9006 O.3         1 DSK      -0.3865
      9 OAI         1.8418  -15.6977  -20.9150 O.3         1 DSK      -0.3840
     10 CAJ        -1.9211  -21.3008  -17.8722 C.3         1 DSK       0.0727
     11 CAK        -0.1857  -16.0330  -18.1100 C.3         1 DSK       0.0944
     12 CAL        -1.7805  -18.5363  -20.3110 C.3         1 DSK       0.1385
     13 CAM        -1.2010  -16.3211  -21.9483 C.3         1 DSK       0.1386
     14 CAN        -3.3720  -20.8325  -18.2202 C.3         1 DSK       0.1065
     15 CAO        -2.9116  -19.0870  -21.2322 C.3         1 DSK       0.1280
     16 CAP        -0.3375  -15.0600  -21.7634 C.3         1 DSK       0.1303
     17 CAQ        -4.1001  -21.8169  -19.2109 C.3         1 DSK       0.1114
     18 CAR        -2.9972  -20.6509  -21.4020 C.3         1 DSK       0.1137
     19 CAS        -4.2152  -21.3725  -20.7116 C.3         1 DSK       0.1119
     20 CAT         0.5408  -15.2809  -20.5137 C.3         1 DSK       0.1349
     21 CAU        -0.1202  -16.3764  -19.6225 C.3         1 DSK       0.1711
     22 SAV        -1.7770  -16.7088  -20.2822 S.3         1 DSK       0.0029
     23 H1         -0.9798  -19.6528  -17.4956 H           1 DSK       0.2095
     24 H2         -1.4065  -14.7045  -17.3896 H           1 DSK       0.2096
     25 H3         -4.2145  -21.5770  -16.6289 H           1 DSK       0.2100
     26 H4         -3.7018  -18.4102  -22.8591 H           1 DSK       0.2101
     27 H5         -0.6265  -13.1516  -21.9021 H           1 DSK       0.2101
     28 H6         -5.7588  -22.8187  -19.2847 H           1 DSK       0.2100
     29 H7         -1.1060  -20.9291  -21.6787 H           1 DSK       0.2100
     30 H8         -5.5501  -20.6065  -21.8755 H           1 DSK       0.2100
     31 H9          1.7259  -16.5658  -21.3577 H           1 DSK       0.2101
     32 H10        -1.9484  -22.2956  -17.4153 H           1 DSK       0.0584
     33 H11        -1.3063  -21.3535  -18.7829 H           1 DSK       0.0584
     34 H12         0.1166  -16.9092  -17.5085 H           1 DSK       0.0608
     35 H13         0.5146  -15.2134  -17.8556 H           1 DSK       0.0608
     36 H14        -0.8032  -18.9196  -20.6325 H           1 DSK       0.0867
     37 H15        -1.9880  -18.8722  -19.2759 H           1 DSK       0.0867
     38 H16        -0.5820  -17.1208  -22.3719 H           1 DSK       0.0867
     39 H17        -2.0472  -16.1350  -22.6161 H           1 DSK       0.0867
     40 H18        -3.2853  -19.8368  -18.6721 H           1 DSK       0.0643
     41 H19        -3.8464  -18.7134  -20.8122 H           1 DSK       0.0667
     42 H20         0.2702  -14.9009  -22.6673 H           1 DSK       0.0668
     43 H21        -3.5828  -22.7861  -19.1998 H           1 DSK       0.0647
     44 H22        -3.1318  -20.8421  -22.4706 H           1 DSK       0.0647
     45 H23        -4.3683  -22.3080  -21.2612 H           1 DSK       0.0647
     46 H24         0.6430  -14.3440  -19.9726 H           1 DSK       0.0672
     47 H25         0.4735  -17.2868  -19.7095 H           1 DSK       0.0928
@<TRIPOS>BOND
     1    10     1   1
     2    11     2   1
     3    14     3   1
     4    15     4   1
     5    16     5   1
     6    17     6   1
     7    18     7   1
     8    19     8   1
     9    20     9   1
    10    14    10   1
    11    21    11   1
    12    12    15   1
    13    22    12   1
    14    16    13   1
    15    13    22   1
    16    17    14   1
    17    15    18   1
    18    20    16   1
    19    19    17   1
    20    18    19   1
    21    20    21   1
    22    21    22   1
    23     1    23   1
    24     2    24   1
    25     3    25   1
    26     4    26   1
    27     5    27   1
    28     6    28   1
    29     7    29   1
    30     8    30   1
    31     9    31   1
    32    10    32   1
    33    10    33   1
    34    11    34   1
    35    11    35   1
    36    12    36   1
    37    12    37   1
    38    13    38   1
    39    13    39   1
    40    14    40   1
    41    15    41   1
    42    16    42   1
    43    17    43   1
    44    18    44   1
    45    19    45   1
    46    20    46   1
    47    21    47   1
@<TRIPOS>SUBSTRUCTURE
     1  DSK     10

