@<TRIPOS>MOLECULE
3l4u_ligand_029
    47    47
SMALL
GAST_HUCK
****
This file was generated by PARSER (from files_GN.cpp)

@<TRIPOS>ATOM
      1 OAA         2.5272  -15.7312  -20.5681 O.3         1 DSK      -0.3924
      2 OAB         0.0914  -23.4422  -18.8231 O.3         1 DSK      -0.3900
      3 OAC         0.3690  -13.8924  -19.9038 O.3         1 DSK      -0.3869
      4 OAD        -3.1502  -17.1582  -19.4598 O.3         1 DSK      -0.3845
      5 OAE        -3.0243  -22.4699  -15.0976 O.3         1 DSK      -0.3844
      6 OAF        -0.8354  -16.0161  -22.6236 O.3         1 DSK      -0.3865
      7 OAG        -1.7038  -18.2996  -22.0275 O.3         1 DSK      -0.3864
      8 OAH        -0.2883  -16.7332  -19.0216 O.3         1 DSK      -0.3865
      9 OAI        -0.0349  -21.8510  -15.3311 O.3         1 DSK      -0.3840
     10 CAJ         1.8845  -14.9131  -21.5445 C.3         1 DSK       0.0727
     11 CAK         0.4835  -22.0939  -18.5718 C.3         1 DSK       0.0944
     12 CAL        -2.2533  -19.1435  -18.3913 C.3         1 DSK       0.1385
     13 CAM        -3.1411  -21.6123  -17.3760 C.3         1 DSK       0.1386
     14 CAN         0.4125  -14.5559  -21.1682 C.3         1 DSK       0.1065
     15 CAO        -2.5296  -18.4140  -19.7379 C.3         1 DSK       0.1280
     16 CAP        -2.3761  -21.6208  -16.0442 C.3         1 DSK       0.1303
     17 CAQ        -0.6323  -15.7155  -21.2380 C.3         1 DSK       0.1114
     18 CAR        -1.2722  -18.2486  -20.6642 C.3         1 DSK       0.1137
     19 CAS        -0.3220  -17.0201  -20.4219 C.3         1 DSK       0.1119
     20 CAT        -0.9510  -22.0942  -16.4011 C.3         1 DSK       0.1349
     21 CAU        -0.5350  -21.3283  -17.6882 C.3         1 DSK       0.1711
     22 SAV        -2.0396  -20.9427  -18.6488 S.3         1 DSK       0.0029
     23 H1          3.4885  -15.6855  -20.7848 H           1 DSK       0.2095
     24 H2          0.8108  -23.8138  -19.3786 H           1 DSK       0.2096
     25 H3          1.2322  -14.0574  -19.4673 H           1 DSK       0.2100
     26 H4         -3.3991  -16.7910  -20.3347 H           1 DSK       0.2101
     27 H5         -3.0488  -21.9582  -14.2586 H           1 DSK       0.2101
     28 H6         -1.4684  -15.3402  -22.9394 H           1 DSK       0.2100
     29 H7         -0.9352  -18.6538  -22.5168 H           1 DSK       0.2100
     30 H8          0.4743  -16.1286  -18.8935 H           1 DSK       0.2100
     31 H9         -0.3312  -22.4305  -14.5969 H           1 DSK       0.2101
     32 H10         1.9030  -15.4322  -22.5082 H           1 DSK       0.0584
     33 H11         2.4626  -13.9868  -21.6390 H           1 DSK       0.0584
     34 H12         0.5932  -21.5841  -19.5334 H           1 DSK       0.0608
     35 H13         1.4614  -22.1017  -18.0790 H           1 DSK       0.0608
     36 H14        -3.1034  -18.9659  -17.7323 H           1 DSK       0.0867
     37 H15        -1.3874  -18.6945  -17.9093 H           1 DSK       0.0867
     38 H16        -4.0700  -21.0446  -17.2946 H           1 DSK       0.0867
     39 H17        -3.3940  -22.6362  -17.6629 H           1 DSK       0.0867
     40 H18         0.0865  -13.8003  -21.8891 H           1 DSK       0.0643
     41 H19        -3.2807  -19.0084  -20.2617 H           1 DSK       0.0667
     42 H20        -2.3426  -20.6078  -15.6357 H           1 DSK       0.0668
     43 H21        -1.5751  -15.3077  -20.8721 H           1 DSK       0.0647
     44 H22        -0.6530  -19.1412  -20.5432 H           1 DSK       0.0647
     45 H23         0.6842  -17.3458  -20.6966 H           1 DSK       0.0647
     46 H24        -0.9774  -23.1733  -16.5873 H           1 DSK       0.0672
     47 H25        -0.0453  -20.4015  -17.3876 H           1 DSK       0.0928
@<TRIPOS>BOND
     1    10     1   1
     2    11     2   1
     3    14     3   1
     4    15     4   1
     5    16     5   1
     6    17     6   1
     7    18     7   1
     8    19     8   1
     9    20     9   1
    10    14    10   1
    11    21    11   1
    12    12    15   1
    13    22    12   1
    14    16    13   1
    15    13    22   1
    16    17    14   1
    17    15    18   1
    18    20    16   1
    19    19    17   1
    20    18    19   1
    21    20    21   1
    22    21    22   1
    23     1    23   1
    24     2    24   1
    25     3    25   1
    26     4    26   1
    27     5    27   1
    28     6    28   1
    29     7    29   1
    30     8    30   1
    31     9    31   1
    32    10    32   1
    33    10    33   1
    34    11    34   1
    35    11    35   1
    36    12    36   1
    37    12    37   1
    38    13    38   1
    39    13    39   1
    40    14    40   1
    41    15    41   1
    42    16    42   1
    43    17    43   1
    44    18    44   1
    45    19    45   1
    46    20    46   1
    47    21    47   1
@<TRIPOS>SUBSTRUCTURE
     1  DSK     10

