@<TRIPOS>MOLECULE
3l4u_ligand_057
    47    47
SMALL
GAST_HUCK
****
This file was generated by PARSER (from files_GN.cpp)

@<TRIPOS>ATOM
      1 OAA         0.3135  -15.7128  -17.6616 O.3         1 DSK      -0.3924
      2 OAB        -6.2469  -24.6376  -20.7265 O.3         1 DSK      -0.3900
      3 OAC        -2.3425  -15.7267  -17.8516 O.3         1 DSK      -0.3869
      4 OAD        -2.0955  -19.4490  -23.2285 O.3         1 DSK      -0.3845
      5 OAE        -5.9245  -24.7362  -24.6981 O.3         1 DSK      -0.3844
      6 OAF        -2.6922  -18.2927  -18.2703 O.3         1 DSK      -0.3865
      7 OAG        -2.7766  -20.3349  -19.7531 O.3         1 DSK      -0.3864
      8 OAH        -1.4072  -17.7480  -21.6649 O.3         1 DSK      -0.3865
      9 OAI        -6.9214  -21.6508  -24.0096 O.3         1 DSK      -0.3840
     10 CAJ        -0.1897  -15.6978  -18.9942 C.3         1 DSK       0.0727
     11 CAK        -6.6126  -23.2533  -20.7298 C.3         1 DSK       0.0944
     12 CAL        -3.5930  -21.2353  -22.8255 C.3         1 DSK       0.1385
     13 CAM        -4.2657  -23.9323  -23.0880 C.3         1 DSK       0.1386
     14 CAN        -1.6759  -16.1626  -19.0473 C.3         1 DSK       0.1065
     15 CAO        -2.5272  -20.3133  -22.1741 C.3         1 DSK       0.1280
     16 CAP        -5.3928  -23.5723  -24.0703 C.3         1 DSK       0.1303
     17 CAQ        -1.8461  -17.7125  -19.2733 C.3         1 DSK       0.1114
     18 CAR        -3.0058  -19.5136  -20.9049 C.3         1 DSK       0.1137
     19 CAS        -2.4148  -18.0730  -20.7010 C.3         1 DSK       0.1119
     20 CAT        -6.4887  -22.8064  -23.2891 C.3         1 DSK       0.1349
     21 CAU        -5.9465  -22.4322  -21.8738 C.3         1 DSK       0.1711
     22 SAV        -4.1414  -22.6550  -21.8198 S.3         1 DSK       0.0029
     23 H1          0.0862  -14.8257  -17.3044 H           1 DSK       0.2095
     24 H2         -6.6526  -25.0199  -21.5354 H           1 DSK       0.2096
     25 H3         -2.0856  -14.7890  -17.7055 H           1 DSK       0.2100
     26 H4         -2.0122  -20.0357  -24.0136 H           1 DSK       0.2101
     27 H5         -5.1955  -25.0930  -25.2459 H           1 DSK       0.2101
     28 H6         -3.3857  -17.6213  -18.1048 H           1 DSK       0.2100
     29 H7         -3.3096  -19.9246  -19.0291 H           1 DSK       0.2100
     30 H8         -0.8787  -18.5634  -21.8322 H           1 DSK       0.2100
     31 H9         -6.1102  -21.2278  -24.3636 H           1 DSK       0.2101
     32 H10         0.4312  -16.3526  -19.6131 H           1 DSK       0.0584
     33 H11        -0.1113  -14.6777  -19.3784 H           1 DSK       0.0584
     34 H12        -6.3359  -22.8300  -19.7594 H           1 DSK       0.0608
     35 H13        -7.7013  -23.1816  -20.8279 H           1 DSK       0.0608
     36 H14        -3.1532  -21.6098  -23.7486 H           1 DSK       0.0867
     37 H15        -4.4434  -20.6135  -23.1065 H           1 DSK       0.0867
     38 H16        -3.3127  -24.0442  -23.6027 H           1 DSK       0.0867
     39 H17        -4.4947  -24.8707  -22.5861 H           1 DSK       0.0867
     40 H18        -2.1598  -15.6228  -19.8703 H           1 DSK       0.0643
     41 H19        -1.6618  -20.9211  -21.8875 H           1 DSK       0.0667
     42 H20        -4.9935  -22.9318  -24.8595 H           1 DSK       0.0668
     43 H21        -0.8712  -18.2043  -19.1691 H           1 DSK       0.0647
     44 H22        -4.0904  -19.3861  -20.9712 H           1 DSK       0.0647
     45 H23        -3.2317  -17.3732  -20.9123 H           1 DSK       0.0647
     46 H24        -7.3790  -23.4325  -23.1913 H           1 DSK       0.0672
     47 H25        -6.1608  -21.3794  -21.6502 H           1 DSK       0.0928
@<TRIPOS>BOND
     1    10     1   1
     2    11     2   1
     3    14     3   1
     4    15     4   1
     5    16     5   1
     6    17     6   1
     7    18     7   1
     8    19     8   1
     9    20     9   1
    10    14    10   1
    11    21    11   1
    12    12    15   1
    13    22    12   1
    14    16    13   1
    15    13    22   1
    16    17    14   1
    17    15    18   1
    18    20    16   1
    19    19    17   1
    20    18    19   1
    21    20    21   1
    22    21    22   1
    23     1    23   1
    24     2    24   1
    25     3    25   1
    26     4    26   1
    27     5    27   1
    28     6    28   1
    29     7    29   1
    30     8    30   1
    31     9    31   1
    32    10    32   1
    33    10    33   1
    34    11    34   1
    35    11    35   1
    36    12    36   1
    37    12    37   1
    38    13    38   1
    39    13    39   1
    40    14    40   1
    41    15    41   1
    42    16    42   1
    43    17    43   1
    44    18    44   1
    45    19    45   1
    46    20    46   1
    47    21    47   1
@<TRIPOS>SUBSTRUCTURE
     1  DSK     10

