@<TRIPOS>MOLECULE
3l4u_ligand_082
    47    47
SMALL
GAST_HUCK
****
This file was generated by PARSER (from files_GN.cpp)

@<TRIPOS>ATOM
      1 OAA        -0.9784  -23.6787  -22.0139 O.3         1 DSK      -0.3924
      2 OAB        -1.0528  -15.4056  -17.7989 O.3         1 DSK      -0.3900
      3 OAC        -2.8908  -23.1584  -23.8633 O.3         1 DSK      -0.3869
      4 OAD        -2.7200  -19.0894  -18.9523 O.3         1 DSK      -0.3845
      5 OAE        -1.1093  -13.6765  -21.5482 O.3         1 DSK      -0.3844
      6 OAF        -5.3816  -21.8494  -22.9612 O.3         1 DSK      -0.3865
      7 OAG        -2.4101  -18.9976  -22.6196 O.3         1 DSK      -0.3864
      8 OAH        -4.2452  -21.1640  -20.2651 O.3         1 DSK      -0.3865
      9 OAI         2.0442  -15.4736  -21.5927 O.3         1 DSK      -0.3840
     10 CAJ        -1.8215  -22.5461  -21.7872 C.3         1 DSK       0.0727
     11 CAK         0.1968  -15.1192  -18.4519 C.3         1 DSK       0.0944
     12 CAL        -0.8359  -18.3312  -20.2878 C.3         1 DSK       0.1385
     13 CAM        -0.9996  -16.0751  -22.0323 C.3         1 DSK       0.1386
     14 CAN        -3.1672  -22.6685  -22.5466 C.3         1 DSK       0.1065
     15 CAO        -2.0524  -19.3018  -20.2036 C.3         1 DSK       0.1280
     16 CAP        -0.2530  -14.7337  -21.9703 C.3         1 DSK       0.1303
     17 CAQ        -4.0568  -21.3862  -22.6716 C.3         1 DSK       0.1114
     18 CAR        -3.0807  -19.2171  -21.3808 C.3         1 DSK       0.1137
     19 CAS        -4.1396  -20.3872  -21.4632 C.3         1 DSK       0.1119
     20 CAT         0.8891  -14.9185  -20.9537 C.3         1 DSK       0.1349
     21 CAU         0.3662  -15.8503  -19.8163 C.3         1 DSK       0.1711
     22 SAV        -1.2506  -16.5497  -20.3016 S.3         1 DSK       0.0029
     23 H1         -1.4531  -24.4359  -21.6053 H           1 DSK       0.2095
     24 H2         -1.2841  -14.5268  -17.4311 H           1 DSK       0.2096
     25 H3         -2.6198  -22.3716  -24.3835 H           1 DSK       0.2100
     26 H4         -3.0013  -18.1497  -18.9487 H           1 DSK       0.2101
     27 H5         -1.4903  -13.9604  -20.6887 H           1 DSK       0.2101
     28 H6         -5.7297  -22.2129  -22.1221 H           1 DSK       0.2100
     29 H7         -1.5631  -19.4757  -22.5738 H           1 DSK       0.2100
     30 H8         -3.9706  -20.5680  -19.5380 H           1 DSK       0.2100
     31 H9          1.8412  -16.4198  -21.7410 H           1 DSK       0.2101
     32 H10        -1.2853  -21.6474  -22.0988 H           1 DSK       0.0584
     33 H11        -2.0105  -22.5018  -20.7083 H           1 DSK       0.0584
     34 H12         1.0020  -15.4241  -17.7592 H           1 DSK       0.0608
     35 H13         0.2719  -14.0249  -18.6003 H           1 DSK       0.0608
     36 H14        -0.2095  -18.5957  -21.1495 H           1 DSK       0.0867
     37 H15        -0.2322  -18.5264  -19.3905 H           1 DSK       0.0867
     38 H16        -0.3960  -16.8067  -22.5928 H           1 DSK       0.0867
     39 H17        -1.9642  -15.9648  -22.5426 H           1 DSK       0.0867
     40 H18        -3.7425  -23.4503  -22.0366 H           1 DSK       0.0643
     41 H19        -1.6358  -20.3118  -20.1770 H           1 DSK       0.0667
     42 H20         0.1384  -14.4771  -22.9491 H           1 DSK       0.0668
     43 H21        -3.7501  -20.8400  -23.5597 H           1 DSK       0.0647
     44 H22        -3.6363  -18.2887  -21.2216 H           1 DSK       0.0647
     45 H23        -5.1098  -19.8842  -21.5611 H           1 DSK       0.0647
     46 H24         1.2041  -13.9485  -20.5572 H           1 DSK       0.0672
     47 H25         1.0872  -16.6564  -19.6528 H           1 DSK       0.0928
@<TRIPOS>BOND
     1    10     1   1
     2    11     2   1
     3    14     3   1
     4    15     4   1
     5    16     5   1
     6    17     6   1
     7    18     7   1
     8    19     8   1
     9    20     9   1
    10    14    10   1
    11    21    11   1
    12    12    15   1
    13    22    12   1
    14    16    13   1
    15    13    22   1
    16    17    14   1
    17    15    18   1
    18    20    16   1
    19    19    17   1
    20    18    19   1
    21    20    21   1
    22    21    22   1
    23     1    23   1
    24     2    24   1
    25     3    25   1
    26     4    26   1
    27     5    27   1
    28     6    28   1
    29     7    29   1
    30     8    30   1
    31     9    31   1
    32    10    32   1
    33    10    33   1
    34    11    34   1
    35    11    35   1
    36    12    36   1
    37    12    37   1
    38    13    38   1
    39    13    39   1
    40    14    40   1
    41    15    41   1
    42    16    42   1
    43    17    43   1
    44    18    44   1
    45    19    45   1
    46    20    46   1
    47    21    47   1
@<TRIPOS>SUBSTRUCTURE
     1  DSK     10

