@<TRIPOS>MOLECULE
3l4u_ligand_013
    47    47
SMALL
GAST_HUCK
****
This file was generated by PARSER (from files_GN.cpp)

@<TRIPOS>ATOM
      1 OAA         0.7908  -15.5243  -17.4091 O.3         1 DSK      -0.3924
      2 OAB         2.3505  -22.3018  -18.1761 O.3         1 DSK      -0.3900
      3 OAC        -2.0669  -14.5122  -19.0963 O.3         1 DSK      -0.3869
      4 OAD        -1.7941  -20.8901  -21.2180 O.3         1 DSK      -0.3845
      5 OAE        -1.3676  -21.9038  -14.4325 O.3         1 DSK      -0.3844
      6 OAF         0.0672  -17.2420  -20.2943 O.3         1 DSK      -0.3865
      7 OAG        -3.8444  -18.9925  -21.1355 O.3         1 DSK      -0.3864
      8 OAH        -3.5111  -16.3785  -20.5723 O.3         1 DSK      -0.3865
      9 OAI         1.1625  -21.0237  -15.7409 O.3         1 DSK      -0.3840
     10 CAJ        -0.5209  -15.9197  -17.8017 C.3         1 DSK       0.0727
     11 CAK         1.0289  -22.3611  -18.7193 C.3         1 DSK       0.0944
     12 CAL        -2.2577  -20.2529  -18.9070 C.3         1 DSK       0.1385
     13 CAM        -2.3085  -21.9518  -16.7089 C.3         1 DSK       0.1386
     14 CAN        -0.8991  -15.3335  -19.1982 C.3         1 DSK       0.1065
     15 CAO        -1.7240  -19.7936  -20.2977 C.3         1 DSK       0.1280
     16 CAP        -1.2280  -21.3931  -15.7579 C.3         1 DSK       0.1303
     17 CAQ        -1.0954  -16.4123  -20.3072 C.3         1 DSK       0.1114
     18 CAR        -2.4880  -18.5823  -20.9402 C.3         1 DSK       0.1137
     19 CAS        -2.4294  -17.2238  -20.1618 C.3         1 DSK       0.1119
     20 CAT         0.1289  -21.7926  -16.3544 C.3         1 DSK       0.1349
     21 CAU         0.0322  -21.5284  -17.8739 C.3         1 DSK       0.1711
     22 SAV        -1.6692  -21.9020  -18.4047 S.3         1 DSK       0.0029
     23 H1          0.7070  -14.5790  -17.1661 H           1 DSK       0.2095
     24 H2          2.9026  -22.8209  -18.8046 H           1 DSK       0.2096
     25 H3         -1.9067  -13.9131  -18.3324 H           1 DSK       0.2100
     26 H4         -1.1426  -20.6762  -21.9205 H           1 DSK       0.2101
     27 H5         -2.0745  -21.3699  -14.0097 H           1 DSK       0.2101
     28 H6          0.3676  -17.3103  -21.2270 H           1 DSK       0.2100
     29 H7         -4.2091  -18.3708  -21.8030 H           1 DSK       0.2100
     30 H8         -3.1189  -15.6358  -21.0837 H           1 DSK       0.2100
     31 H9          1.9941  -21.3093  -16.1665 H           1 DSK       0.2101
     32 H10        -1.2282  -15.5783  -17.0436 H           1 DSK       0.0584
     33 H11        -0.5382  -17.0095  -17.8016 H           1 DSK       0.0584
     34 H12         0.7161  -23.4128  -18.7590 H           1 DSK       0.0608
     35 H13         1.0671  -21.9691  -19.7445 H           1 DSK       0.0608
     36 H14        -3.3479  -20.3024  -18.9382 H           1 DSK       0.0867
     37 H15        -1.9756  -19.5227  -18.1453 H           1 DSK       0.0867
     38 H16        -3.2476  -21.3957  -16.6111 H           1 DSK       0.0867
     39 H17        -2.5041  -23.0002  -16.4648 H           1 DSK       0.0867
     40 H18        -0.0935  -14.6683  -19.5282 H           1 DSK       0.0643
     41 H19        -0.6665  -19.5388  -20.1934 H           1 DSK       0.0667
     42 H20        -1.3057  -20.3030  -15.7210 H           1 DSK       0.0668
     43 H21        -1.0995  -15.9039  -21.2774 H           1 DSK       0.0647
     44 H22        -2.0797  -18.4133  -21.9413 H           1 DSK       0.0647
     45 H23        -2.6209  -17.4286  -19.1092 H           1 DSK       0.0647
     46 H24         0.3088  -22.8532  -16.1606 H           1 DSK       0.0672
     47 H25         0.2463  -20.4723  -18.0469 H           1 DSK       0.0928
@<TRIPOS>BOND
     1    10     1   1
     2    11     2   1
     3    14     3   1
     4    15     4   1
     5    16     5   1
     6    17     6   1
     7    18     7   1
     8    19     8   1
     9    20     9   1
    10    14    10   1
    11    21    11   1
    12    12    15   1
    13    22    12   1
    14    16    13   1
    15    13    22   1
    16    17    14   1
    17    15    18   1
    18    20    16   1
    19    19    17   1
    20    18    19   1
    21    20    21   1
    22    21    22   1
    23     1    23   1
    24     2    24   1
    25     3    25   1
    26     4    26   1
    27     5    27   1
    28     6    28   1
    29     7    29   1
    30     8    30   1
    31     9    31   1
    32    10    32   1
    33    10    33   1
    34    11    34   1
    35    11    35   1
    36    12    36   1
    37    12    37   1
    38    13    38   1
    39    13    39   1
    40    14    40   1
    41    15    41   1
    42    16    42   1
    43    17    43   1
    44    18    44   1
    45    19    45   1
    46    20    46   1
    47    21    47   1
@<TRIPOS>SUBSTRUCTURE
     1  DSK     10

