@<TRIPOS>MOLECULE
3l4u_ligand_049
    47    47
SMALL
GAST_HUCK
****
This file was generated by PARSER (from files_GN.cpp)

@<TRIPOS>ATOM
      1 OAA        -5.9456  -14.0131  -19.4469 O.3         1 DSK      -0.3924
      2 OAB        -4.4741  -21.7528  -17.6733 O.3         1 DSK      -0.3900
      3 OAC        -3.7868  -15.1003  -17.5708 O.3         1 DSK      -0.3869
      4 OAD        -0.9838  -17.3987  -21.7154 O.3         1 DSK      -0.3845
      5 OAE        -5.4806  -22.6264  -23.0474 O.3         1 DSK      -0.3844
      6 OAF        -1.6146  -14.0111  -19.4078 O.3         1 DSK      -0.3865
      7 OAG        -1.7381  -18.7795  -18.4413 O.3         1 DSK      -0.3864
      8 OAH        -1.3500  -16.3261  -17.6628 O.3         1 DSK      -0.3865
      9 OAI        -6.1981  -21.6670  -20.2504 O.3         1 DSK      -0.3840
     10 CAJ        -4.5364  -13.8002  -19.4688 C.3         1 DSK       0.0727
     11 CAK        -3.4115  -21.8760  -18.6256 C.3         1 DSK       0.0944
     12 CAL        -2.3558  -19.3903  -21.6274 C.3         1 DSK       0.1385
     13 CAM        -3.2227  -21.8515  -22.4899 C.3         1 DSK       0.1386
     14 CAN        -3.7971  -15.0818  -18.9996 C.3         1 DSK       0.1065
     15 CAO        -1.4026  -18.4424  -20.8252 C.3         1 DSK       0.1280
     16 CAP        -4.7354  -21.7213  -22.2220 C.3         1 DSK       0.1303
     17 CAQ        -2.3560  -15.2219  -19.5938 C.3         1 DSK       0.1114
     18 CAR        -2.0127  -17.8545  -19.4990 C.3         1 DSK       0.1137
     19 CAS        -1.4989  -16.4273  -19.0811 C.3         1 DSK       0.1119
     20 CAT        -4.8938  -22.0235  -20.7195 C.3         1 DSK       0.1349
     21 CAU        -3.7883  -21.2258  -19.9807 C.3         1 DSK       0.1711
     22 SAV        -2.3344  -21.1369  -21.0757 S.3         1 DSK       0.0029
     23 H1         -6.3266  -13.2988  -20.0003 H           1 DSK       0.2095
     24 H2         -4.1352  -22.2013  -16.8707 H           1 DSK       0.2096
     25 H3         -3.1610  -14.3886  -17.3186 H           1 DSK       0.2100
     26 H4         -0.2320  -17.8068  -22.1983 H           1 DSK       0.2101
     27 H5         -6.4196  -22.3732  -22.9065 H           1 DSK       0.2101
     28 H6         -1.6397  -13.7977  -18.4510 H           1 DSK       0.2100
     29 H7         -0.8088  -18.6095  -18.1829 H           1 DSK       0.2100
     30 H8         -2.2562  -16.4166  -17.2951 H           1 DSK       0.2100
     31 H9         -6.7809  -22.3997  -20.5441 H           1 DSK       0.2101
     32 H10        -4.2985  -12.9639  -18.8036 H           1 DSK       0.0584
     33 H11        -4.2399  -13.5417  -20.4913 H           1 DSK       0.0584
     34 H12        -3.1772  -22.9401  -18.7604 H           1 DSK       0.0608
     35 H13        -2.5285  -21.3826  -18.2076 H           1 DSK       0.0608
     36 H14        -2.0029  -19.3805  -22.6618 H           1 DSK       0.0867
     37 H15        -3.3727  -18.9751  -21.6313 H           1 DSK       0.0867
     38 H16        -2.9553  -21.3860  -23.4427 H           1 DSK       0.0867
     39 H17        -2.9525  -22.9109  -22.5445 H           1 DSK       0.0867
     40 H18        -4.3986  -15.9298  -19.3272 H           1 DSK       0.0643
     41 H19        -0.4908  -18.9960  -20.5624 H           1 DSK       0.0667
     42 H20        -5.0665  -20.6929  -22.4406 H           1 DSK       0.0668
     43 H21        -2.4663  -15.3352  -20.6715 H           1 DSK       0.0647
     44 H22        -3.0972  -17.8215  -19.5921 H           1 DSK       0.0647
     45 H23        -0.4850  -16.3170  -19.4809 H           1 DSK       0.0647
     46 H24        -4.7610  -23.1008  -20.5646 H           1 DSK       0.0672
     47 H25        -4.1579  -20.2183  -19.7820 H           1 DSK       0.0928
@<TRIPOS>BOND
     1    10     1   1
     2    11     2   1
     3    14     3   1
     4    15     4   1
     5    16     5   1
     6    17     6   1
     7    18     7   1
     8    19     8   1
     9    20     9   1
    10    14    10   1
    11    21    11   1
    12    12    15   1
    13    22    12   1
    14    16    13   1
    15    13    22   1
    16    17    14   1
    17    15    18   1
    18    20    16   1
    19    19    17   1
    20    18    19   1
    21    20    21   1
    22    21    22   1
    23     1    23   1
    24     2    24   1
    25     3    25   1
    26     4    26   1
    27     5    27   1
    28     6    28   1
    29     7    29   1
    30     8    30   1
    31     9    31   1
    32    10    32   1
    33    10    33   1
    34    11    34   1
    35    11    35   1
    36    12    36   1
    37    12    37   1
    38    13    38   1
    39    13    39   1
    40    14    40   1
    41    15    41   1
    42    16    42   1
    43    17    43   1
    44    18    44   1
    45    19    45   1
    46    20    46   1
    47    21    47   1
@<TRIPOS>SUBSTRUCTURE
     1  DSK     10

