@<TRIPOS>MOLECULE
3l4u_ligand_051
    47    47
SMALL
GAST_HUCK
****
This file was generated by PARSER (from files_GN.cpp)

@<TRIPOS>ATOM
      1 OAA        -1.5099  -21.3943  -14.8875 O.3         1 DSK      -0.3924
      2 OAB         0.1345  -15.4721  -22.7497 O.3         1 DSK      -0.3900
      3 OAC        -0.7873  -22.9860  -17.0455 O.3         1 DSK      -0.3869
      4 OAD        -3.2492  -18.2117  -21.2378 O.3         1 DSK      -0.3845
      5 OAE        -2.3257  -15.3752  -17.0743 O.3         1 DSK      -0.3844
      6 OAF        -1.0580  -20.2064  -17.6790 O.3         1 DSK      -0.3865
      7 OAG        -2.3415  -20.8478  -21.9333 O.3         1 DSK      -0.3864
      8 OAH        -2.4006  -22.7810  -19.8889 O.3         1 DSK      -0.3865
      9 OAI        -2.9041  -14.1279  -19.7187 O.3         1 DSK      -0.3840
     10 CAJ        -2.5488  -21.9977  -15.6629 C.3         1 DSK       0.0727
     11 CAK        -0.2402  -14.7426  -21.5711 C.3         1 DSK       0.0944
     12 CAL        -0.8931  -18.4980  -20.7012 C.3         1 DSK       0.1385
     13 CAM        -0.8235  -16.8803  -18.3146 C.3         1 DSK       0.1386
     14 CAN        -2.0719  -22.3660  -17.0947 C.3         1 DSK       0.1065
     15 CAO        -2.3560  -18.9412  -20.3855 C.3         1 DSK       0.1280
     16 CAP        -2.0447  -15.9377  -18.3554 C.3         1 DSK       0.1303
     17 CAQ        -2.0756  -21.1380  -18.0649 C.3         1 DSK       0.1114
     18 CAR        -2.6178  -20.4732  -20.5797 C.3         1 DSK       0.1137
     19 CAS        -1.9021  -21.4647  -19.5943 C.3         1 DSK       0.1119
     20 CAT        -1.7146  -14.8635  -19.4152 C.3         1 DSK       0.1349
     21 CAU        -1.1305  -15.6130  -20.6452 C.3         1 DSK       0.1711
     22 SAV        -0.1469  -16.9924  -19.9870 S.3         1 DSK       0.0029
     23 H1         -1.9282  -21.2418  -14.0110 H           1 DSK       0.2095
     24 H2          0.6482  -16.2403  -22.4282 H           1 DSK       0.2096
     25 H3         -0.2450  -22.4347  -16.4491 H           1 DSK       0.2100
     26 H4         -4.0709  -18.7561  -21.2907 H           1 DSK       0.2101
     27 H5         -1.5809  -14.7659  -16.9018 H           1 DSK       0.2101
     28 H6         -0.2052  -20.6562  -17.8817 H           1 DSK       0.2100
     29 H7         -1.3954  -20.6352  -22.0940 H           1 DSK       0.2100
     30 H8         -3.3593  -22.7475  -19.7004 H           1 DSK       0.2100
     31 H9         -2.8559  -13.9567  -20.6859 H           1 DSK       0.2101
     32 H10        -3.3972  -21.3118  -15.7188 H           1 DSK       0.0584
     33 H11        -2.8689  -22.9076  -15.1491 H           1 DSK       0.0584
     34 H12        -0.7803  -13.8506  -21.8826 H           1 DSK       0.0608
     35 H13         0.6724  -14.4187  -21.0474 H           1 DSK       0.0608
     36 H14        -0.7998  -18.3833  -21.7805 H           1 DSK       0.0867
     37 H15        -0.2116  -19.2965  -20.4100 H           1 DSK       0.0867
     38 H16        -1.0930  -17.8615  -17.9167 H           1 DSK       0.0867
     39 H17        -0.0483  -16.4383  -17.6733 H           1 DSK       0.0867
     40 H18        -2.7728  -23.1108  -17.4873 H           1 DSK       0.0643
     41 H19        -2.6031  -18.6789  -19.3532 H           1 DSK       0.0667
     42 H20        -2.9254  -16.4958  -18.6766 H           1 DSK       0.0668
     43 H21        -3.0418  -20.6315  -17.9458 H           1 DSK       0.0647
     44 H22        -3.6904  -20.6260  -20.4404 H           1 DSK       0.0647
     45 H23        -0.8299  -21.4972  -19.8361 H           1 DSK       0.0647
     46 H24        -0.9627  -14.1632  -19.0132 H           1 DSK       0.0672
     47 H25        -1.9526  -15.9776  -21.2524 H           1 DSK       0.0928
@<TRIPOS>BOND
     1    10     1   1
     2    11     2   1
     3    14     3   1
     4    15     4   1
     5    16     5   1
     6    17     6   1
     7    18     7   1
     8    19     8   1
     9    20     9   1
    10    14    10   1
    11    21    11   1
    12    12    15   1
    13    22    12   1
    14    16    13   1
    15    13    22   1
    16    17    14   1
    17    15    18   1
    18    20    16   1
    19    19    17   1
    20    18    19   1
    21    20    21   1
    22    21    22   1
    23     1    23   1
    24     2    24   1
    25     3    25   1
    26     4    26   1
    27     5    27   1
    28     6    28   1
    29     7    29   1
    30     8    30   1
    31     9    31   1
    32    10    32   1
    33    10    33   1
    34    11    34   1
    35    11    35   1
    36    12    36   1
    37    12    37   1
    38    13    38   1
    39    13    39   1
    40    14    40   1
    41    15    41   1
    42    16    42   1
    43    17    43   1
    44    18    44   1
    45    19    45   1
    46    20    46   1
    47    21    47   1
@<TRIPOS>SUBSTRUCTURE
     1  DSK     10

