@<TRIPOS>MOLECULE
3l4u_ligand_005
    47    47
SMALL
GAST_HUCK
****
This file was generated by PARSER (from files_GN.cpp)

@<TRIPOS>ATOM
      1 OAA         3.5029  -16.4082  -21.7682 O.3         1 DSK      -0.3924
      2 OAB        -3.1842  -19.2849  -23.1446 O.3         1 DSK      -0.3900
      3 OAC         1.9131  -13.6832  -21.5446 O.3         1 DSK      -0.3869
      4 OAD        -1.1282  -16.2037  -17.5013 O.3         1 DSK      -0.3845
      5 OAE        -1.0209  -23.1835  -19.6278 O.3         1 DSK      -0.3844
      6 OAF        -0.5780  -16.2682  -22.2548 O.3         1 DSK      -0.3865
      7 OAG        -2.9525  -14.9627  -19.6152 O.3         1 DSK      -0.3864
      8 OAH        -0.5761  -13.8041  -19.5841 O.3         1 DSK      -0.3865
      9 OAI        -1.6701  -21.8896  -22.2865 O.3         1 DSK      -0.3840
     10 CAJ         2.3676  -16.0234  -20.9860 C.3         1 DSK       0.0727
     11 CAK        -3.5578  -19.4359  -21.7728 C.3         1 DSK       0.0944
     12 CAL        -1.2559  -18.2667  -18.8216 C.3         1 DSK       0.1385
     13 CAM        -1.6546  -21.0317  -18.6299 C.3         1 DSK       0.1386
     14 CAN         1.4780  -15.0310  -21.7892 C.3         1 DSK       0.1065
     15 CAO        -1.8523  -16.8432  -18.5503 C.3         1 DSK       0.1280
     16 CAP        -1.1182  -21.7749  -19.8800 C.3         1 DSK       0.1303
     17 CAQ        -0.0669  -15.1346  -21.5458 C.3         1 DSK       0.1114
     18 CAR        -1.8848  -15.9009  -19.7903 C.3         1 DSK       0.1137
     19 CAS        -0.5270  -15.1518  -20.0579 C.3         1 DSK       0.1119
     20 CAT        -2.1222  -21.4476  -21.0059 C.3         1 DSK       0.1349
     21 CAU        -2.3385  -19.9084  -20.9314 C.3         1 DSK       0.1711
     22 SAV        -2.5363  -19.5244  -19.1506 S.3         1 DSK       0.0029
     23 H1          3.9352  -17.1129  -21.2339 H           1 DSK       0.2095
     24 H2         -3.7765  -19.8774  -23.6562 H           1 DSK       0.2096
     25 H3          2.8599  -13.7855  -21.2742 H           1 DSK       0.2100
     26 H4         -1.5774  -15.3345  -17.3666 H           1 DSK       0.2101
     27 H5         -0.6061  -23.5472  -20.4366 H           1 DSK       0.2101
     28 H6          0.1104  -16.9873  -22.1576 H           1 DSK       0.2100
     29 H7         -3.0995  -14.5704  -20.4984 H           1 DSK       0.2100
     30 H8         -0.4603  -13.8375  -18.6093 H           1 DSK       0.2100
     31 H9         -0.9703  -21.2585  -22.5449 H           1 DSK       0.2101
     32 H10         2.7319  -15.5328  -20.0726 H           1 DSK       0.0584
     33 H11         1.8115  -16.9229  -20.7046 H           1 DSK       0.0584
     34 H12        -4.3834  -20.1537  -21.6822 H           1 DSK       0.0608
     35 H13        -3.9021  -18.4660  -21.4024 H           1 DSK       0.0608
     36 H14        -0.7102  -18.5894  -17.9270 H           1 DSK       0.0867
     37 H15        -0.5168  -18.2568  -19.6352 H           1 DSK       0.0867
     38 H16        -0.8454  -20.8285  -17.9214 H           1 DSK       0.0867
     39 H17        -2.4001  -21.6620  -18.1293 H           1 DSK       0.0867
     40 H18         1.6420  -15.2267  -22.8578 H           1 DSK       0.0643
     41 H19        -2.8739  -16.9719  -18.1724 H           1 DSK       0.0667
     42 H20        -0.1256  -21.3887  -20.1374 H           1 DSK       0.0668
     43 H21        -0.5337  -14.2655  -22.0268 H           1 DSK       0.0647
     44 H22        -2.1608  -16.5136  -20.6516 H           1 DSK       0.0647
     45 H23         0.2710  -15.6319  -19.4784 H           1 DSK       0.0647
     46 H24        -3.0641  -21.9744  -20.7959 H           1 DSK       0.0672
     47 H25        -1.4409  -19.4157  -21.3204 H           1 DSK       0.0928
@<TRIPOS>BOND
     1    10     1   1
     2    11     2   1
     3    14     3   1
     4    15     4   1
     5    16     5   1
     6    17     6   1
     7    18     7   1
     8    19     8   1
     9    20     9   1
    10    14    10   1
    11    21    11   1
    12    12    15   1
    13    22    12   1
    14    16    13   1
    15    13    22   1
    16    17    14   1
    17    15    18   1
    18    20    16   1
    19    19    17   1
    20    18    19   1
    21    20    21   1
    22    21    22   1
    23     1    23   1
    24     2    24   1
    25     3    25   1
    26     4    26   1
    27     5    27   1
    28     6    28   1
    29     7    29   1
    30     8    30   1
    31     9    31   1
    32    10    32   1
    33    10    33   1
    34    11    34   1
    35    11    35   1
    36    12    36   1
    37    12    37   1
    38    13    38   1
    39    13    39   1
    40    14    40   1
    41    15    41   1
    42    16    42   1
    43    17    43   1
    44    18    44   1
    45    19    45   1
    46    20    46   1
    47    21    47   1
@<TRIPOS>SUBSTRUCTURE
     1  DSK     10

