@<TRIPOS>MOLECULE
3l4u_ligand_080
    47    47
SMALL
GAST_HUCK
****
This file was generated by PARSER (from files_GN.cpp)

@<TRIPOS>ATOM
      1 OAA         0.3129  -15.8068  -23.6118 O.3         1 DSK      -0.3924
      2 OAB        -6.7775  -23.0700  -23.1121 O.3         1 DSK      -0.3900
      3 OAC         2.0112  -15.3678  -21.6199 O.3         1 DSK      -0.3869
      4 OAD        -3.1785  -18.9790  -19.5098 O.3         1 DSK      -0.3845
      5 OAE        -5.8770  -23.6785  -20.5502 O.3         1 DSK      -0.3844
      6 OAF         0.7256  -15.8005  -18.8380 O.3         1 DSK      -0.3865
      7 OAG        -1.1608  -17.7121  -22.3018 O.3         1 DSK      -0.3864
      8 OAH        -2.0085  -15.9371  -19.9035 O.3         1 DSK      -0.3865
      9 OAI        -2.6157  -23.4363  -22.2036 O.3         1 DSK      -0.3840
     10 CAJ        -0.2346  -15.1583  -22.4645 C.3         1 DSK       0.0727
     11 CAK        -5.8174  -22.1763  -23.6709 C.3         1 DSK       0.0944
     12 CAL        -3.0754  -19.9143  -21.7777 C.3         1 DSK       0.1385
     13 CAM        -4.2788  -21.8695  -20.1852 C.3         1 DSK       0.1386
     14 CAN         0.6440  -15.2687  -21.1857 C.3         1 DSK       0.1065
     15 CAO        -2.8626  -18.6678  -20.8673 C.3         1 DSK       0.1280
     16 CAP        -4.5042  -23.3075  -20.6742 C.3         1 DSK       0.1303
     17 CAQ         0.3792  -16.3864  -20.1048 C.3         1 DSK       0.1114
     18 CAR        -1.4040  -18.1252  -20.9559 C.3         1 DSK       0.1137
     19 CAS        -1.0558  -16.9924  -19.9356 C.3         1 DSK       0.1119
     20 CAT        -4.0459  -23.3447  -22.1495 C.3         1 DSK       0.1349
     21 CAU        -4.5115  -22.0344  -22.8426 C.3         1 DSK       0.1711
     22 SAV        -4.6808  -20.7512  -21.5588 S.3         1 DSK       0.0029
     23 H1          1.2817  -15.6433  -23.5708 H           1 DSK       0.2095
     24 H2         -6.8075  -22.8485  -22.1580 H           1 DSK       0.2096
     25 H3          2.1170  -16.3210  -21.8525 H           1 DSK       0.2100
     26 H4         -2.5373  -19.6714  -19.2433 H           1 DSK       0.2101
     27 H5         -6.0496  -23.7209  -19.5831 H           1 DSK       0.2101
     28 H6          1.5462  -15.2694  -18.9877 H           1 DSK       0.2100
     29 H7         -0.1825  -17.6029  -22.3462 H           1 DSK       0.2100
     30 H8         -2.8916  -16.3680  -19.7988 H           1 DSK       0.2100
     31 H9         -2.4000  -24.3397  -21.8858 H           1 DSK       0.2101
     32 H10        -1.2321  -15.5537  -22.2765 H           1 DSK       0.0584
     33 H11        -0.3450  -14.0955  -22.7127 H           1 DSK       0.0584
     34 H12        -6.2905  -21.1973  -23.8031 H           1 DSK       0.0608
     35 H13        -5.5701  -22.5594  -24.6638 H           1 DSK       0.0608
     36 H14        -2.2545  -20.6231  -21.6355 H           1 DSK       0.0867
     37 H15        -3.0373  -19.5804  -22.8123 H           1 DSK       0.0867
     38 H16        -3.2407  -21.7624  -19.8622 H           1 DSK       0.0867
     39 H17        -4.9187  -21.6358  -19.3343 H           1 DSK       0.0867
     40 H18         0.5563  -14.2885  -20.6819 H           1 DSK       0.0643
     41 H19        -3.5576  -17.8903  -21.1988 H           1 DSK       0.0667
     42 H20        -3.9235  -24.0080  -20.0736 H           1 DSK       0.0668
     43 H21         1.0906  -17.1978  -20.2759 H           1 DSK       0.0647
     44 H22        -0.7353  -18.9650  -20.7408 H           1 DSK       0.0647
     45 H23        -1.0939  -17.4488  -18.9441 H           1 DSK       0.0647
     46 H24        -4.4460  -24.2303  -22.6537 H           1 DSK       0.0672
     47 H25        -3.7490  -21.7279  -23.5636 H           1 DSK       0.0928
@<TRIPOS>BOND
     1    10     1   1
     2    11     2   1
     3    14     3   1
     4    15     4   1
     5    16     5   1
     6    17     6   1
     7    18     7   1
     8    19     8   1
     9    20     9   1
    10    14    10   1
    11    21    11   1
    12    12    15   1
    13    22    12   1
    14    16    13   1
    15    13    22   1
    16    17    14   1
    17    15    18   1
    18    20    16   1
    19    19    17   1
    20    18    19   1
    21    20    21   1
    22    21    22   1
    23     1    23   1
    24     2    24   1
    25     3    25   1
    26     4    26   1
    27     5    27   1
    28     6    28   1
    29     7    29   1
    30     8    30   1
    31     9    31   1
    32    10    32   1
    33    10    33   1
    34    11    34   1
    35    11    35   1
    36    12    36   1
    37    12    37   1
    38    13    38   1
    39    13    39   1
    40    14    40   1
    41    15    41   1
    42    16    42   1
    43    17    43   1
    44    18    44   1
    45    19    45   1
    46    20    46   1
    47    21    47   1
@<TRIPOS>SUBSTRUCTURE
     1  DSK     10

