@<TRIPOS>MOLECULE
3l4u_ligand_032
    47    47
SMALL
GAST_HUCK
****
This file was generated by PARSER (from files_GN.cpp)

@<TRIPOS>ATOM
      1 OAA         2.9188  -15.7478  -21.7518 O.3         1 DSK      -0.3924
      2 OAB        -5.1315  -21.8284  -19.2704 O.3         1 DSK      -0.3900
      3 OAC         0.2254  -14.6801  -19.5330 O.3         1 DSK      -0.3869
      4 OAD        -0.3489  -17.0627  -18.3367 O.3         1 DSK      -0.3845
      5 OAE        -3.9645  -23.0618  -17.0570 O.3         1 DSK      -0.3844
      6 OAF         0.0698  -16.0262  -23.0033 O.3         1 DSK      -0.3865
      7 OAG        -1.7093  -18.9461  -21.1461 O.3         1 DSK      -0.3864
      8 OAH        -2.4583  -16.7513  -22.1849 O.3         1 DSK      -0.3865
      9 OAI        -0.8756  -23.1163  -19.0005 O.3         1 DSK      -0.3840
     10 CAJ         1.9917  -15.9301  -20.6790 C.3         1 DSK       0.0727
     11 CAK        -4.0538  -21.4936  -20.1393 C.3         1 DSK       0.0944
     12 CAL        -1.0739  -19.3960  -18.3997 C.3         1 DSK       0.1385
     13 CAM        -2.1410  -21.4370  -16.8317 C.3         1 DSK       0.1386
     14 CAN         0.7486  -15.0006  -20.8294 C.3         1 DSK       0.1065
     15 CAO        -1.2640  -17.9536  -18.9887 C.3         1 DSK       0.1280
     16 CAP        -2.5761  -22.8351  -17.3070 C.3         1 DSK       0.1303
     17 CAQ        -0.4101  -15.5145  -21.7621 C.3         1 DSK       0.1114
     18 CAR        -1.0238  -17.8465  -20.5334 C.3         1 DSK       0.1137
     19 CAS        -1.4979  -16.4766  -21.1578 C.3         1 DSK       0.1119
     20 CAT        -2.2741  -22.8762  -18.8166 C.3         1 DSK       0.1349
     21 CAU        -2.6729  -21.5023  -19.4300 C.3         1 DSK       0.1711
     22 SAV        -2.6564  -20.2560  -18.1008 S.3         1 DSK       0.0029
     23 H1          3.8035  -15.8550  -21.3365 H           1 DSK       0.2095
     24 H2         -5.9428  -21.5854  -19.7681 H           1 DSK       0.2096
     25 H3          0.9652  -14.2085  -19.0781 H           1 DSK       0.2100
     26 H4         -0.9192  -16.5258  -17.7317 H           1 DSK       0.2101
     27 H5         -4.0484  -23.0940  -16.0825 H           1 DSK       0.2101
     28 H6          0.8151  -16.5961  -22.7406 H           1 DSK       0.2100
     29 H7         -1.1229  -19.2403  -21.8697 H           1 DSK       0.2100
     30 H8         -2.9837  -15.9311  -22.2945 H           1 DSK       0.2100
     31 H9         -0.7532  -23.2517  -19.9645 H           1 DSK       0.2101
     32 H10         2.5148  -15.6701  -19.7555 H           1 DSK       0.0584
     33 H11         1.6986  -16.9842  -20.6177 H           1 DSK       0.0584
     34 H12        -4.2439  -20.5031  -20.5570 H           1 DSK       0.0608
     35 H13        -4.0425  -22.2089  -20.9660 H           1 DSK       0.0608
     36 H14        -0.5607  -19.3261  -17.4362 H           1 DSK       0.0867
     37 H15        -0.4270  -20.0126  -19.0301 H           1 DSK       0.0867
     38 H16        -1.0582  -21.4275  -16.6866 H           1 DSK       0.0867
     39 H17        -2.6189  -21.1793  -15.8831 H           1 DSK       0.0867
     40 H18         1.1232  -14.0615  -21.2618 H           1 DSK       0.0643
     41 H19        -2.2784  -17.5884  -18.7865 H           1 DSK       0.0667
     42 H20        -2.0126  -23.6096  -16.7783 H           1 DSK       0.0668
     43 H21        -0.9708  -14.6168  -22.0395 H           1 DSK       0.0647
     44 H22         0.0471  -17.9933  -20.7340 H           1 DSK       0.0647
     45 H23        -2.0379  -15.9024  -20.3963 H           1 DSK       0.0647
     46 H24        -2.8114  -23.7020  -19.2914 H           1 DSK       0.0672
     47 H25        -1.9473  -21.2411  -20.2016 H           1 DSK       0.0928
@<TRIPOS>BOND
     1    10     1   1
     2    11     2   1
     3    14     3   1
     4    15     4   1
     5    16     5   1
     6    17     6   1
     7    18     7   1
     8    19     8   1
     9    20     9   1
    10    14    10   1
    11    21    11   1
    12    12    15   1
    13    22    12   1
    14    16    13   1
    15    13    22   1
    16    17    14   1
    17    15    18   1
    18    20    16   1
    19    19    17   1
    20    18    19   1
    21    20    21   1
    22    21    22   1
    23     1    23   1
    24     2    24   1
    25     3    25   1
    26     4    26   1
    27     5    27   1
    28     6    28   1
    29     7    29   1
    30     8    30   1
    31     9    31   1
    32    10    32   1
    33    10    33   1
    34    11    34   1
    35    11    35   1
    36    12    36   1
    37    12    37   1
    38    13    38   1
    39    13    39   1
    40    14    40   1
    41    15    41   1
    42    16    42   1
    43    17    43   1
    44    18    44   1
    45    19    45   1
    46    20    46   1
    47    21    47   1
@<TRIPOS>SUBSTRUCTURE
     1  DSK     10

