@<TRIPOS>MOLECULE
3l4u_ligand_030
    47    47
SMALL
GAST_HUCK
****
This file was generated by PARSER (from files_GN.cpp)

@<TRIPOS>ATOM
      1 OAA        -2.5805  -21.8460  -15.1866 O.3         1 DSK      -0.3924
      2 OAB        -1.4995  -15.5288  -17.6280 O.3         1 DSK      -0.3900
      3 OAC         0.8856  -23.1352  -15.1415 O.3         1 DSK      -0.3869
      4 OAD        -1.6824  -21.3545  -21.5323 O.3         1 DSK      -0.3845
      5 OAE        -4.1300  -16.0612  -20.5934 O.3         1 DSK      -0.3844
      6 OAF        -1.6806  -23.9922  -17.4758 O.3         1 DSK      -0.3865
      7 OAG         0.6563  -21.8950  -19.8394 O.3         1 DSK      -0.3864
      8 OAH         0.2208  -20.8360  -17.3816 O.3         1 DSK      -0.3865
      9 OAI        -1.1151  -16.1439  -21.9672 O.3         1 DSK      -0.3840
     10 CAJ        -1.1990  -21.9408  -14.8157 C.3         1 DSK       0.0727
     11 CAK        -0.3500  -15.7477  -18.4426 C.3         1 DSK       0.0944
     12 CAL        -0.8816  -19.4138  -20.3415 C.3         1 DSK       0.1385
     13 CAM        -2.9738  -17.8290  -19.3620 C.3         1 DSK       0.1386
     14 CAN        -0.4869  -23.1001  -15.5478 C.3         1 DSK       0.1065
     15 CAO        -1.4946  -20.8354  -20.2165 C.3         1 DSK       0.1280
     16 CAP        -2.9867  -16.9200  -20.6072 C.3         1 DSK       0.1303
     17 CAQ        -0.6062  -23.1228  -17.1045 C.3         1 DSK       0.1114
     18 CAR        -0.7008  -21.8896  -19.3969 C.3         1 DSK       0.1137
     19 CAS        -0.7691  -21.7538  -17.8409 C.3         1 DSK       0.1119
     20 CAT        -1.6573  -16.1215  -20.6464 C.3         1 DSK       0.1349
     21 CAU        -0.6494  -16.7224  -19.6149 C.3         1 DSK       0.1711
     22 SAV        -1.2790  -18.2968  -18.9622 S.3         1 DSK       0.0029
     23 H1         -3.0336  -21.5724  -14.3575 H           1 DSK       0.2095
     24 H2         -1.4592  -14.5791  -17.4037 H           1 DSK       0.2096
     25 H3          1.2607  -22.2791  -15.4315 H           1 DSK       0.2100
     26 H4         -0.9164  -21.0387  -22.0530 H           1 DSK       0.2101
     27 H5         -3.9086  -15.3339  -21.2130 H           1 DSK       0.2101
     28 H6         -2.4980  -23.5735  -17.1288 H           1 DSK       0.2100
     29 H7          1.0472  -22.7455  -19.5190 H           1 DSK       0.2100
     30 H8          1.0712  -21.3222  -17.4379 H           1 DSK       0.2100
     31 H9         -1.6684  -15.5144  -22.4789 H           1 DSK       0.2101
     32 H10        -1.1438  -22.1050  -13.7310 H           1 DSK       0.0584
     33 H11        -0.7038  -20.9864  -15.0370 H           1 DSK       0.0584
     34 H12         0.4493  -16.1371  -17.8082 H           1 DSK       0.0608
     35 H13        -0.0227  -14.7859  -18.8458 H           1 DSK       0.0608
     36 H14        -1.2030  -18.9640  -21.2744 H           1 DSK       0.0867
     37 H15         0.1990  -19.4955  -20.3957 H           1 DSK       0.0867
     38 H16        -3.5745  -18.7156  -19.5312 H           1 DSK       0.0867
     39 H17        -3.3852  -17.2966  -18.5038 H           1 DSK       0.0867
     40 H18        -0.9211  -24.0359  -15.1676 H           1 DSK       0.0643
     41 H19        -2.5003  -20.7733  -19.7931 H           1 DSK       0.0667
     42 H20        -3.0729  -17.5490  -21.4995 H           1 DSK       0.0668
     43 H21         0.3037  -23.6052  -17.4783 H           1 DSK       0.0647
     44 H22        -1.1162  -22.8613  -19.6690 H           1 DSK       0.0647
     45 H23        -1.7429  -21.3440  -17.5600 H           1 DSK       0.0647
     46 H24        -1.8629  -15.0705  -20.4177 H           1 DSK       0.0672
     47 H25         0.3096  -16.9162  -20.1064 H           1 DSK       0.0928
@<TRIPOS>BOND
     1    10     1   1
     2    11     2   1
     3    14     3   1
     4    15     4   1
     5    16     5   1
     6    17     6   1
     7    18     7   1
     8    19     8   1
     9    20     9   1
    10    14    10   1
    11    21    11   1
    12    12    15   1
    13    22    12   1
    14    16    13   1
    15    13    22   1
    16    17    14   1
    17    15    18   1
    18    20    16   1
    19    19    17   1
    20    18    19   1
    21    20    21   1
    22    21    22   1
    23     1    23   1
    24     2    24   1
    25     3    25   1
    26     4    26   1
    27     5    27   1
    28     6    28   1
    29     7    29   1
    30     8    30   1
    31     9    31   1
    32    10    32   1
    33    10    33   1
    34    11    34   1
    35    11    35   1
    36    12    36   1
    37    12    37   1
    38    13    38   1
    39    13    39   1
    40    14    40   1
    41    15    41   1
    42    16    42   1
    43    17    43   1
    44    18    44   1
    45    19    45   1
    46    20    46   1
    47    21    47   1
@<TRIPOS>SUBSTRUCTURE
     1  DSK     10

