@<TRIPOS>MOLECULE
3l4u_ligand_031
    47    47
SMALL
GAST_HUCK
****
This file was generated by PARSER (from files_GN.cpp)

@<TRIPOS>ATOM
      1 OAA        -1.3370  -14.4155  -19.2476 O.3         1 DSK      -0.3924
      2 OAB         1.0915  -24.4583  -17.6590 O.3         1 DSK      -0.3900
      3 OAC        -0.7788  -15.7199  -21.4274 O.3         1 DSK      -0.3869
      4 OAD        -3.9693  -20.6334  -19.8783 O.3         1 DSK      -0.3845
      5 OAE        -0.9504  -22.2823  -13.9140 O.3         1 DSK      -0.3844
      6 OAF        -1.6326  -18.0474  -22.1562 O.3         1 DSK      -0.3865
      7 OAG        -2.1156  -20.5279  -21.8875 O.3         1 DSK      -0.3864
      8 OAH        -1.1719  -19.1109  -18.6446 O.3         1 DSK      -0.3865
      9 OAI         0.4769  -20.2266  -15.8873 O.3         1 DSK      -0.3840
     10 CAJ        -1.6833  -15.7971  -19.1884 C.3         1 DSK       0.0727
     11 CAK         1.3975  -23.0709  -17.8120 C.3         1 DSK       0.0944
     12 CAL        -2.4818  -21.5849  -18.1925 C.3         1 DSK       0.1385
     13 CAM        -1.6925  -23.1854  -16.0679 C.3         1 DSK       0.1386
     14 CAN        -0.9607  -16.5961  -20.3078 C.3         1 DSK       0.1065
     15 CAO        -2.7407  -21.3375  -19.7154 C.3         1 DSK       0.1280
     16 CAP        -1.1132  -21.9841  -15.3007 C.3         1 DSK       0.1303
     17 CAQ        -1.6880  -17.9235  -20.7285 C.3         1 DSK       0.1114
     18 CAR        -1.6354  -20.6131  -20.5427 C.3         1 DSK       0.1137
     19 CAS        -1.0957  -19.2144  -20.0649 C.3         1 DSK       0.1119
     20 CAT         0.2313  -21.6352  -15.9759 C.3         1 DSK       0.1349
     21 CAU         0.2127  -22.1238  -17.4573 C.3         1 DSK       0.1711
     22 SAV        -1.3513  -22.9734  -17.8313 S.3         1 DSK       0.0029
     23 H1         -1.4329  -14.0556  -18.3383 H           1 DSK       0.2095
     24 H2          0.7938  -24.5707  -16.7308 H           1 DSK       0.2096
     25 H3         -1.6728  -15.4042  -21.6799 H           1 DSK       0.2100
     26 H4         -3.7074  -19.7167  -20.1013 H           1 DSK       0.2101
     27 H5         -1.7224  -21.8718  -13.4702 H           1 DSK       0.2101
     28 H6         -0.7174  -18.3464  -22.3497 H           1 DSK       0.2100
     29 H7         -1.3180  -20.4938  -22.4541 H           1 DSK       0.2100
     30 H8         -1.9929  -18.5944  -18.4682 H           1 DSK       0.2100
     31 H9         -0.1155  -19.8154  -16.5532 H           1 DSK       0.2101
     32 H10        -2.7694  -15.8841  -19.3013 H           1 DSK       0.0584
     33 H11        -1.4021  -16.1841  -18.2042 H           1 DSK       0.0584
     34 H12         1.6926  -22.9113  -18.8521 H           1 DSK       0.0608
     35 H13         2.2653  -22.8408  -17.1822 H           1 DSK       0.0608
     36 H14        -3.4517  -21.8550  -17.7486 H           1 DSK       0.0867
     37 H15        -2.1514  -20.6618  -17.7120 H           1 DSK       0.0867
     38 H16        -2.7610  -23.2925  -15.8821 H           1 DSK       0.0867
     39 H17        -1.1969  -24.1019  -15.7400 H           1 DSK       0.0867
     40 H18         0.0503  -16.8252  -19.9546 H           1 DSK       0.0643
     41 H19        -2.9068  -22.3263  -20.1670 H           1 DSK       0.0667
     42 H20        -1.7995  -21.1384  -15.3685 H           1 DSK       0.0668
     43 H21        -2.7464  -17.8407  -20.4743 H           1 DSK       0.0647
     44 H22        -0.7875  -21.3002  -20.5949 H           1 DSK       0.0647
     45 H23        -0.0300  -19.2087  -20.3094 H           1 DSK       0.0647
     46 H24         1.0395  -22.1254  -15.4206 H           1 DSK       0.0672
     47 H25         0.3070  -21.2558  -18.1117 H           1 DSK       0.0928
@<TRIPOS>BOND
     1    10     1   1
     2    11     2   1
     3    14     3   1
     4    15     4   1
     5    16     5   1
     6    17     6   1
     7    18     7   1
     8    19     8   1
     9    20     9   1
    10    14    10   1
    11    21    11   1
    12    12    15   1
    13    22    12   1
    14    16    13   1
    15    13    22   1
    16    17    14   1
    17    15    18   1
    18    20    16   1
    19    19    17   1
    20    18    19   1
    21    20    21   1
    22    21    22   1
    23     1    23   1
    24     2    24   1
    25     3    25   1
    26     4    26   1
    27     5    27   1
    28     6    28   1
    29     7    29   1
    30     8    30   1
    31     9    31   1
    32    10    32   1
    33    10    33   1
    34    11    34   1
    35    11    35   1
    36    12    36   1
    37    12    37   1
    38    13    38   1
    39    13    39   1
    40    14    40   1
    41    15    41   1
    42    16    42   1
    43    17    43   1
    44    18    44   1
    45    19    45   1
    46    20    46   1
    47    21    47   1
@<TRIPOS>SUBSTRUCTURE
     1  DSK     10

