@<TRIPOS>MOLECULE
3l4u_ligand_039
    47    47
SMALL
GAST_HUCK
****
This file was generated by PARSER (from files_GN.cpp)

@<TRIPOS>ATOM
      1 OAA        -0.4914  -15.7359  -22.6545 O.3         1 DSK      -0.3924
      2 OAB        -4.0122  -21.0355  -16.4033 O.3         1 DSK      -0.3900
      3 OAC         2.2343  -15.8147  -20.6453 O.3         1 DSK      -0.3869
      4 OAD        -2.0257  -18.7114  -22.6225 O.3         1 DSK      -0.3845
      5 OAE         0.6477  -22.1450  -18.7149 O.3         1 DSK      -0.3844
      6 OAF         0.3178  -15.8701  -18.3401 O.3         1 DSK      -0.3865
      7 OAG        -3.7033  -16.7216  -20.7421 O.3         1 DSK      -0.3864
      8 OAH        -1.9775  -14.7942  -19.8286 O.3         1 DSK      -0.3865
      9 OAI        -1.8933  -23.7176  -18.8840 O.3         1 DSK      -0.3840
     10 CAJ         0.4949  -14.8745  -22.0602 C.3         1 DSK       0.0727
     11 CAK        -4.1702  -21.8123  -17.6038 C.3         1 DSK       0.0944
     12 CAL        -2.8710  -19.5052  -20.5473 C.3         1 DSK       0.1385
     13 CAM        -0.8022  -20.1645  -18.7618 C.3         1 DSK       0.1386
     14 CAN         0.9142  -15.2304  -20.5985 C.3         1 DSK       0.1065
     15 CAO        -1.9708  -18.4307  -21.2210 C.3         1 DSK       0.1280
     16 CAP        -0.6270  -21.6597  -19.1154 C.3         1 DSK       0.1303
     17 CAQ         0.0323  -16.1806  -19.7072 C.3         1 DSK       0.1114
     18 CAR        -2.2993  -16.9080  -20.9770 C.3         1 DSK       0.1137
     19 CAS        -1.5307  -16.1557  -19.8287 C.3         1 DSK       0.1119
     20 CAT        -1.7718  -22.3915  -18.3947 C.3         1 DSK       0.1349
     21 CAU        -3.0531  -21.5608  -18.6583 C.3         1 DSK       0.1711
     22 SAV        -2.5810  -19.7884  -18.7610 S.3         1 DSK       0.0029
     23 H1         -0.8965  -15.1522  -23.3403 H           1 DSK       0.2095
     24 H2         -3.1932  -21.3834  -15.9933 H           1 DSK       0.2096
     25 H3          2.1388  -16.5917  -21.2351 H           1 DSK       0.2100
     26 H4         -1.3331  -19.3864  -22.7646 H           1 DSK       0.2101
     27 H5          0.7058  -21.9837  -17.7492 H           1 DSK       0.2101
     28 H6          1.0869  -15.2417  -18.3208 H           1 DSK       0.2100
     29 H7         -3.9187  -15.8575  -21.1522 H           1 DSK       0.2100
     30 H8         -2.2494  -14.5900  -20.7498 H           1 DSK       0.2100
     31 H9         -2.4864  -24.1747  -18.2547 H           1 DSK       0.2101
     32 H10         0.1188  -13.8304  -22.0846 H           1 DSK       0.0584
     33 H11         1.4019  -14.8990  -22.7013 H           1 DSK       0.0584
     34 H12        -5.1483  -21.5634  -18.0353 H           1 DSK       0.0608
     35 H13        -4.1986  -22.8783  -17.3313 H           1 DSK       0.0608
     36 H14        -2.7332  -20.4503  -21.0778 H           1 DSK       0.0867
     37 H15        -3.9213  -19.2199  -20.6392 H           1 DSK       0.0867
     38 H16        -0.2503  -19.5185  -19.4618 H           1 DSK       0.0867
     39 H17        -0.4323  -19.9945  -17.7442 H           1 DSK       0.0867
     40 H18         1.0248  -14.2787  -20.0677 H           1 DSK       0.0643
     41 H19        -0.9360  -18.6411  -20.9141 H           1 DSK       0.0667
     42 H20        -0.7143  -21.7812  -20.1977 H           1 DSK       0.0668
     43 H21         0.3708  -17.2082  -19.8480 H           1 DSK       0.0647
     44 H22        -2.1139  -16.3638  -21.9190 H           1 DSK       0.0647
     45 H23        -1.9277  -16.5736  -18.8794 H           1 DSK       0.0647
     46 H24        -1.5550  -22.4257  -17.3258 H           1 DSK       0.0672
     47 H25        -3.4701  -21.8702  -19.6213 H           1 DSK       0.0928
@<TRIPOS>BOND
     1    10     1   1
     2    11     2   1
     3    14     3   1
     4    15     4   1
     5    16     5   1
     6    17     6   1
     7    18     7   1
     8    19     8   1
     9    20     9   1
    10    14    10   1
    11    21    11   1
    12    12    15   1
    13    22    12   1
    14    16    13   1
    15    13    22   1
    16    17    14   1
    17    15    18   1
    18    20    16   1
    19    19    17   1
    20    18    19   1
    21    20    21   1
    22    21    22   1
    23     1    23   1
    24     2    24   1
    25     3    25   1
    26     4    26   1
    27     5    27   1
    28     6    28   1
    29     7    29   1
    30     8    30   1
    31     9    31   1
    32    10    32   1
    33    10    33   1
    34    11    34   1
    35    11    35   1
    36    12    36   1
    37    12    37   1
    38    13    38   1
    39    13    39   1
    40    14    40   1
    41    15    41   1
    42    16    42   1
    43    17    43   1
    44    18    44   1
    45    19    45   1
    46    20    46   1
    47    21    47   1
@<TRIPOS>SUBSTRUCTURE
     1  DSK     10

