@<TRIPOS>MOLECULE
3l4u_ligand_053
    47    47
SMALL
GAST_HUCK
****
This file was generated by PARSER (from files_GN.cpp)

@<TRIPOS>ATOM
      1 OAA        -0.0810  -15.1743  -23.1492 O.3         1 DSK      -0.3924
      2 OAB         1.2713  -21.1629  -15.7640 O.3         1 DSK      -0.3900
      3 OAC         2.2992  -15.5545  -21.7644 O.3         1 DSK      -0.3869
      4 OAD        -1.9265  -19.8893  -20.7335 O.3         1 DSK      -0.3845
      5 OAE        -3.0183  -24.5691  -18.5621 O.3         1 DSK      -0.3844
      6 OAF         0.5136  -15.7506  -18.7878 O.3         1 DSK      -0.3865
      7 OAG        -1.4511  -17.3139  -18.2163 O.3         1 DSK      -0.3864
      8 OAH        -0.9485  -17.2037  -21.8637 O.3         1 DSK      -0.3865
      9 OAI        -2.3119  -23.8416  -15.7491 O.3         1 DSK      -0.3840
     10 CAJ         0.1943  -14.3707  -22.0043 C.3         1 DSK       0.0727
     11 CAK         0.5687  -22.3970  -15.8970 C.3         1 DSK       0.0944
     12 CAL        -1.2718  -20.0718  -18.4103 C.3         1 DSK       0.1385
     13 CAM        -1.5182  -22.7381  -19.2208 C.3         1 DSK       0.1386
     14 CAN         1.1587  -15.0983  -21.0345 C.3         1 DSK       0.1065
     15 CAO        -1.1390  -19.2550  -19.7259 C.3         1 DSK       0.1280
     16 CAP        -2.4198  -23.3493  -18.1330 C.3         1 DSK       0.1303
     17 CAQ         0.5266  -16.2220  -20.1361 C.3         1 DSK       0.1114
     18 CAR        -1.5899  -17.7678  -19.5676 C.3         1 DSK       0.1137
     19 CAS        -0.9122  -16.7260  -20.5186 C.3         1 DSK       0.1119
     20 CAT        -1.5188  -23.5501  -16.9008 C.3         1 DSK       0.1349
     21 CAU        -0.7207  -22.2329  -16.7424 C.3         1 DSK       0.1711
     22 SAV        -0.3279  -21.6301  -18.4179 S.3         1 DSK       0.0029
     23 H1         -0.8114  -14.7111  -23.6097 H           1 DSK       0.2095
     24 H2          1.6822  -21.0018  -16.6391 H           1 DSK       0.2096
     25 H3          2.2515  -16.5291  -21.7647 H           1 DSK       0.2100
     26 H4         -1.3530  -19.9825  -21.5197 H           1 DSK       0.2101
     27 H5         -2.2737  -25.1862  -18.7297 H           1 DSK       0.2101
     28 H6          1.3573  -15.2567  -18.6672 H           1 DSK       0.2100
     29 H7         -2.0923  -16.5806  -18.1159 H           1 DSK       0.2100
     30 H8         -0.2134  -17.8393  -21.9598 H           1 DSK       0.2100
     31 H9         -1.7863  -23.5241  -14.9828 H           1 DSK       0.2101
     32 H10        -0.7412  -14.1157  -21.4995 H           1 DSK       0.0584
     33 H11         0.6593  -13.4420  -22.3415 H           1 DSK       0.0584
     34 H12         0.3091  -22.7393  -14.8924 H           1 DSK       0.0608
     35 H13         1.2360  -23.1352  -16.3508 H           1 DSK       0.0608
     36 H14        -2.3263  -20.2582  -18.1885 H           1 DSK       0.0867
     37 H15        -0.8613  -19.4647  -17.6032 H           1 DSK       0.0867
     38 H16        -2.1127  -22.2278  -19.9832 H           1 DSK       0.0867
     39 H17        -0.9430  -23.5286  -19.7119 H           1 DSK       0.0867
     40 H18         1.5579  -14.3239  -20.3737 H           1 DSK       0.0643
     41 H19        -0.0944  -19.2988  -20.0370 H           1 DSK       0.0667
     42 H20        -3.2213  -22.6445  -17.8903 H           1 DSK       0.0668
     43 H21         1.2050  -17.0759  -20.1586 H           1 DSK       0.0647
     44 H22        -2.6674  -17.7398  -19.7671 H           1 DSK       0.0647
     45 H23        -1.5726  -15.8591  -20.5000 H           1 DSK       0.0647
     46 H24        -0.8384  -24.3902  -17.0782 H           1 DSK       0.0672
     47 H25        -1.3678  -21.5185  -16.2242 H           1 DSK       0.0928
@<TRIPOS>BOND
     1    10     1   1
     2    11     2   1
     3    14     3   1
     4    15     4   1
     5    16     5   1
     6    17     6   1
     7    18     7   1
     8    19     8   1
     9    20     9   1
    10    14    10   1
    11    21    11   1
    12    12    15   1
    13    22    12   1
    14    16    13   1
    15    13    22   1
    16    17    14   1
    17    15    18   1
    18    20    16   1
    19    19    17   1
    20    18    19   1
    21    20    21   1
    22    21    22   1
    23     1    23   1
    24     2    24   1
    25     3    25   1
    26     4    26   1
    27     5    27   1
    28     6    28   1
    29     7    29   1
    30     8    30   1
    31     9    31   1
    32    10    32   1
    33    10    33   1
    34    11    34   1
    35    11    35   1
    36    12    36   1
    37    12    37   1
    38    13    38   1
    39    13    39   1
    40    14    40   1
    41    15    41   1
    42    16    42   1
    43    17    43   1
    44    18    44   1
    45    19    45   1
    46    20    46   1
    47    21    47   1
@<TRIPOS>SUBSTRUCTURE
     1  DSK     10

