@<TRIPOS>MOLECULE
3l4u_ligand_001
    47    47
SMALL
GAST_HUCK
****
This file was generated by PARSER (from files_GN.cpp)

@<TRIPOS>ATOM
      1 OAA        -0.0649  -22.4990  -25.4388 O.3         1 DSK      -0.3924
      2 OAB        -1.6941  -15.5205  -17.5755 O.3         1 DSK      -0.3900
      3 OAC        -2.4044  -22.7509  -23.5486 O.3         1 DSK      -0.3869
      4 OAD        -0.6869  -21.2063  -18.7356 O.3         1 DSK      -0.3845
      5 OAE        -4.0850  -16.1066  -20.6122 O.3         1 DSK      -0.3844
      6 OAF         0.8289  -22.8530  -22.9459 O.3         1 DSK      -0.3865
      7 OAG        -1.8981  -21.3377  -22.2166 O.3         1 DSK      -0.3864
      8 OAH         0.1545  -23.5642  -20.1996 O.3         1 DSK      -0.3865
      9 OAI        -0.9977  -16.0139  -21.8410 O.3         1 DSK      -0.3840
     10 CAJ        -0.8138  -23.6908  -25.1840 C.3         1 DSK       0.0727
     11 CAK        -0.4687  -15.7882  -18.2523 C.3         1 DSK       0.0944
     12 CAL        -0.6516  -19.3413  -20.3802 C.3         1 DSK       0.1385
     13 CAM        -2.9385  -17.9531  -19.4877 C.3         1 DSK       0.1386
     14 CAN        -1.3759  -23.7345  -23.7304 C.3         1 DSK       0.1065
     15 CAO        -0.5326  -20.8840  -20.1306 C.3         1 DSK       0.1280
     16 CAP        -2.9210  -16.9341  -20.6447 C.3         1 DSK       0.1303
     17 CAQ        -0.2996  -23.6632  -22.5931 C.3         1 DSK       0.1114
     18 CAR        -1.4692  -21.8515  -20.9480 C.3         1 DSK       0.1137
     19 CAS        -0.8763  -23.2948  -21.1707 C.3         1 DSK       0.1119
     20 CAT        -1.6261  -16.0857  -20.5587 C.3         1 DSK       0.1349
     21 CAU        -0.6604  -16.6951  -19.4997 C.3         1 DSK       0.1711
     22 SAV        -1.2495  -18.3344  -18.9850 S.3         1 DSK       0.0029
     23 H1         -0.7299  -21.8547  -25.7696 H           1 DSK       0.2095
     24 H2         -1.6239  -14.5737  -17.3347 H           1 DSK       0.2096
     25 H3         -2.2972  -22.1112  -24.2863 H           1 DSK       0.2100
     26 H4         -0.0124  -20.6697  -18.2718 H           1 DSK       0.2101
     27 H5         -3.8760  -15.3449  -21.1952 H           1 DSK       0.2101
     28 H6          0.5587  -21.9239  -22.8132 H           1 DSK       0.2100
     29 H7         -1.1042  -20.8965  -22.5822 H           1 DSK       0.2100
     30 H8         -0.2966  -23.5443  -19.3282 H           1 DSK       0.2100
     31 H9         -1.5654  -15.4129  -22.3698 H           1 DSK       0.2101
     32 H10        -0.1592  -24.5565  -25.3549 H           1 DSK       0.0584
     33 H11        -1.6428  -23.7480  -25.8998 H           1 DSK       0.0584
     34 H12         0.2195  -16.2574  -17.5448 H           1 DSK       0.0608
     35 H13        -0.0299  -14.8362  -18.5630 H           1 DSK       0.0608
     36 H14        -1.2429  -19.1315  -21.2704 H           1 DSK       0.0867
     37 H15         0.3539  -18.9841  -20.6047 H           1 DSK       0.0867
     38 H16        -3.4659  -18.8655  -19.7715 H           1 DSK       0.0867
     39 H17        -3.4372  -17.5215  -18.6185 H           1 DSK       0.0867
     40 H18        -1.8666  -24.7114  -23.6174 H           1 DSK       0.0643
     41 H19         0.5040  -21.1563  -20.3779 H           1 DSK       0.0667
     42 H20        -2.9468  -17.4781  -21.5927 H           1 DSK       0.0668
     43 H21         0.1182  -24.6779  -22.5215 H           1 DSK       0.0647
     44 H22        -2.3932  -21.9701  -20.3653 H           1 DSK       0.0647
     45 H23        -1.6757  -24.0225  -20.9484 H           1 DSK       0.0647
     46 H24        -1.8746  -15.0536  -20.2930 H           1 DSK       0.0672
     47 H25         0.3355  -16.8078  -19.9326 H           1 DSK       0.0928
@<TRIPOS>BOND
     1    10     1   1
     2    11     2   1
     3    14     3   1
     4    15     4   1
     5    16     5   1
     6    17     6   1
     7    18     7   1
     8    19     8   1
     9    20     9   1
    10    14    10   1
    11    21    11   1
    12    12    15   1
    13    22    12   1
    14    16    13   1
    15    13    22   1
    16    17    14   1
    17    15    18   1
    18    20    16   1
    19    19    17   1
    20    18    19   1
    21    20    21   1
    22    21    22   1
    23     1    23   1
    24     2    24   1
    25     3    25   1
    26     4    26   1
    27     5    27   1
    28     6    28   1
    29     7    29   1
    30     8    30   1
    31     9    31   1
    32    10    32   1
    33    10    33   1
    34    11    34   1
    35    11    35   1
    36    12    36   1
    37    12    37   1
    38    13    38   1
    39    13    39   1
    40    14    40   1
    41    15    41   1
    42    16    42   1
    43    17    43   1
    44    18    44   1
    45    19    45   1
    46    20    46   1
    47    21    47   1
@<TRIPOS>SUBSTRUCTURE
     1  DSK     10

