@<TRIPOS>MOLECULE
3l4u_ligand_034
    47    47
SMALL
GAST_HUCK
****
This file was generated by PARSER (from files_GN.cpp)

@<TRIPOS>ATOM
      1 OAA        -3.8759  -15.7393  -20.0927 O.3         1 DSK      -0.3924
      2 OAB        -6.7224  -22.2820  -17.8215 O.3         1 DSK      -0.3900
      3 OAC        -1.1487  -14.4107  -19.2548 O.3         1 DSK      -0.3869
      4 OAD        -2.2849  -19.0947  -22.6463 O.3         1 DSK      -0.3845
      5 OAE        -6.7249  -24.4247  -22.8446 O.3         1 DSK      -0.3844
      6 OAF         0.2502  -16.4158  -20.3683 O.3         1 DSK      -0.3865
      7 OAG        -3.2255  -19.5494  -19.1252 O.3         1 DSK      -0.3864
      8 OAH        -0.9189  -18.5123  -18.5313 O.3         1 DSK      -0.3865
      9 OAI        -7.9333  -23.0539  -20.4620 O.3         1 DSK      -0.3840
     10 CAJ        -3.1751  -15.6349  -18.8508 C.3         1 DSK       0.0727
     11 CAK        -5.4770  -22.3598  -18.5011 C.3         1 DSK       0.0944
     12 CAL        -3.9986  -20.5698  -21.7485 C.3         1 DSK       0.1385
     13 CAM        -4.6446  -23.2824  -22.2106 C.3         1 DSK       0.1386
     14 CAN        -1.6368  -15.7340  -19.0267 C.3         1 DSK       0.1065
     15 CAO        -2.6515  -19.8308  -21.4745 C.3         1 DSK       0.1280
     16 CAP        -6.1814  -23.2919  -22.1674 C.3         1 DSK       0.1303
     17 CAQ        -1.1367  -16.6972  -20.1549 C.3         1 DSK       0.1114
     18 CAR        -2.6805  -18.8608  -20.2488 C.3         1 DSK       0.1137
     19 CAS        -1.2858  -18.2344  -19.8849 C.3         1 DSK       0.1119
     20 CAT        -6.5416  -23.2814  -20.6720 C.3         1 DSK       0.1349
     21 CAU        -5.6717  -22.1718  -20.0280 C.3         1 DSK       0.1711
     22 SAV        -4.0595  -22.1857  -20.8870 S.3         1 DSK       0.0029
     23 H1         -3.5417  -15.0144  -20.6638 H           1 DSK       0.2095
     24 H2         -6.5078  -22.4182  -16.8765 H           1 DSK       0.2096
     25 H3         -1.2478  -13.9407  -18.3963 H           1 DSK       0.2100
     26 H4         -1.3081  -19.1657  -22.6926 H           1 DSK       0.2101
     27 H5         -6.3797  -25.2098  -22.3692 H           1 DSK       0.2101
     28 H6          0.5273  -16.9635  -21.1359 H           1 DSK       0.2100
     29 H7         -3.1060  -18.9452  -18.3635 H           1 DSK       0.2100
     30 H8         -0.8015  -19.4861  -18.4860 H           1 DSK       0.2100
     31 H9         -8.3926  -23.8005  -20.8988 H           1 DSK       0.2101
     32 H10        -3.5345  -16.4228  -18.1831 H           1 DSK       0.0584
     33 H11        -3.4351  -14.6771  -18.3845 H           1 DSK       0.0584
     34 H12        -5.0268  -23.3283  -18.2903 H           1 DSK       0.0608
     35 H13        -4.8253  -21.5830  -18.1067 H           1 DSK       0.0608
     36 H14        -4.0895  -20.7294  -22.8238 H           1 DSK       0.0867
     37 H15        -4.8295  -19.9259  -21.4632 H           1 DSK       0.0867
     38 H16        -4.2736  -22.9889  -23.1948 H           1 DSK       0.0867
     39 H17        -4.2659  -24.2849  -21.9959 H           1 DSK       0.0867
     40 H18        -1.2144  -16.0549  -18.0755 H           1 DSK       0.0643
     41 H19        -1.8668  -20.5827  -21.3227 H           1 DSK       0.0667
     42 H20        -6.5648  -22.3912  -22.6511 H           1 DSK       0.0668
     43 H21        -1.6465  -16.4422  -21.0857 H           1 DSK       0.0647
     44 H22        -3.3830  -18.0683  -20.4931 H           1 DSK       0.0647
     45 H23        -0.5275  -18.7496  -20.4846 H           1 DSK       0.0647
     46 H24        -6.2915  -24.2530  -20.2386 H           1 DSK       0.0672
     47 H25        -6.1674  -21.2098  -20.1854 H           1 DSK       0.0928
@<TRIPOS>BOND
     1    10     1   1
     2    11     2   1
     3    14     3   1
     4    15     4   1
     5    16     5   1
     6    17     6   1
     7    18     7   1
     8    19     8   1
     9    20     9   1
    10    14    10   1
    11    21    11   1
    12    12    15   1
    13    22    12   1
    14    16    13   1
    15    13    22   1
    16    17    14   1
    17    15    18   1
    18    20    16   1
    19    19    17   1
    20    18    19   1
    21    20    21   1
    22    21    22   1
    23     1    23   1
    24     2    24   1
    25     3    25   1
    26     4    26   1
    27     5    27   1
    28     6    28   1
    29     7    29   1
    30     8    30   1
    31     9    31   1
    32    10    32   1
    33    10    33   1
    34    11    34   1
    35    11    35   1
    36    12    36   1
    37    12    37   1
    38    13    38   1
    39    13    39   1
    40    14    40   1
    41    15    41   1
    42    16    42   1
    43    17    43   1
    44    18    44   1
    45    19    45   1
    46    20    46   1
    47    21    47   1
@<TRIPOS>SUBSTRUCTURE
     1  DSK     10

