@<TRIPOS>MOLECULE
3l4u_ligand_025
    47    47
SMALL
GAST_HUCK
****
This file was generated by PARSER (from files_GN.cpp)

@<TRIPOS>ATOM
      1 OAA        -5.0581  -14.4710  -20.9509 O.3         1 DSK      -0.3924
      2 OAB        -2.9946  -19.4654  -23.2627 O.3         1 DSK      -0.3900
      3 OAC        -4.5016  -14.2963  -17.5416 O.3         1 DSK      -0.3869
      4 OAD        -1.2750  -17.5920  -21.4183 O.3         1 DSK      -0.3845
      5 OAE        -2.7511  -23.4412  -18.6144 O.3         1 DSK      -0.3844
      6 OAF        -2.8656  -16.9834  -18.1712 O.3         1 DSK      -0.3865
      7 OAG         0.8789  -15.8170  -19.8700 O.3         1 DSK      -0.3864
      8 OAH        -0.9796  -14.0808  -19.2691 O.3         1 DSK      -0.3865
      9 OAI        -2.6354  -23.0366  -21.5823 O.3         1 DSK      -0.3840
     10 CAJ        -4.2417  -13.9329  -19.9125 C.3         1 DSK       0.0727
     11 CAK        -3.6770  -20.0687  -22.1670 C.3         1 DSK       0.0944
     12 CAL        -0.9007  -19.0794  -19.4651 C.3         1 DSK       0.1385
     13 CAM        -2.6155  -20.9889  -18.4595 C.3         1 DSK       0.1386
     14 CAN        -4.0606  -14.9432  -18.7349 C.3         1 DSK       0.1065
     15 CAO        -0.4850  -17.7852  -20.2452 C.3         1 DSK       0.1280
     16 CAP        -2.3090  -22.2568  -19.2773 C.3         1 DSK       0.1303
     17 CAQ        -2.6564  -15.5984  -18.4301 C.3         1 DSK       0.1114
     18 CAR        -0.3304  -16.4474  -19.4145 C.3         1 DSK       0.1137
     19 CAS        -1.5058  -15.4006  -19.4735 C.3         1 DSK       0.1119
     20 CAT        -3.0229  -22.0496  -20.6252 C.3         1 DSK       0.1349
     21 CAU        -2.6779  -20.6129  -21.0993 C.3         1 DSK       0.1711
     22 SAV        -2.6481  -19.5754  -19.5969 S.3         1 DSK       0.0029
     23 H1         -5.3970  -13.6893  -21.4350 H           1 DSK       0.2095
     24 H2         -3.2118  -20.0206  -24.0430 H           1 DSK       0.2096
     25 H3         -3.9912  -13.4629  -17.5370 H           1 DSK       0.2100
     26 H4         -2.1983  -17.5368  -21.0937 H           1 DSK       0.2101
     27 H5         -3.7185  -23.3296  -18.4964 H           1 DSK       0.2101
     28 H6         -3.5435  -17.0178  -17.4628 H           1 DSK       0.2100
     29 H7          1.1844  -15.2274  -19.1456 H           1 DSK       0.2100
     30 H8         -0.6668  -14.0487  -18.3392 H           1 DSK       0.2100
     31 H9         -1.6634  -22.9466  -21.6748 H           1 DSK       0.2101
     32 H10        -4.7487  -13.0286  -19.5587 H           1 DSK       0.0584
     33 H11        -3.2895  -13.6253  -20.3401 H           1 DSK       0.0584
     34 H12        -4.3029  -20.8680  -22.5681 H           1 DSK       0.0608
     35 H13        -4.3455  -19.3216  -21.7370 H           1 DSK       0.0608
     36 H14        -0.6798  -18.9392  -18.4066 H           1 DSK       0.0867
     37 H15        -0.2831  -19.9185  -19.7977 H           1 DSK       0.0867
     38 H16        -1.8927  -20.8566  -17.6485 H           1 DSK       0.0867
     39 H17        -3.6102  -21.0699  -18.0137 H           1 DSK       0.0867
     40 H18        -4.7914  -15.7433  -18.8851 H           1 DSK       0.0643
     41 H19         0.5104  -18.0206  -20.6384 H           1 DSK       0.0667
     42 H20        -1.2300  -22.3409  -19.4360 H           1 DSK       0.0668
     43 H21        -2.2808  -15.1999  -17.4805 H           1 DSK       0.0647
     44 H22        -0.1497  -16.6903  -18.3640 H           1 DSK       0.0647
     45 H23        -1.9298  -15.3983  -20.4761 H           1 DSK       0.0647
     46 H24        -4.1024  -22.1395  -20.4687 H           1 DSK       0.0672
     47 H25        -1.6762  -20.6436  -21.5405 H           1 DSK       0.0928
@<TRIPOS>BOND
     1    10     1   1
     2    11     2   1
     3    14     3   1
     4    15     4   1
     5    16     5   1
     6    17     6   1
     7    18     7   1
     8    19     8   1
     9    20     9   1
    10    14    10   1
    11    21    11   1
    12    12    15   1
    13    22    12   1
    14    16    13   1
    15    13    22   1
    16    17    14   1
    17    15    18   1
    18    20    16   1
    19    19    17   1
    20    18    19   1
    21    20    21   1
    22    21    22   1
    23     1    23   1
    24     2    24   1
    25     3    25   1
    26     4    26   1
    27     5    27   1
    28     6    28   1
    29     7    29   1
    30     8    30   1
    31     9    31   1
    32    10    32   1
    33    10    33   1
    34    11    34   1
    35    11    35   1
    36    12    36   1
    37    12    37   1
    38    13    38   1
    39    13    39   1
    40    14    40   1
    41    15    41   1
    42    16    42   1
    43    17    43   1
    44    18    44   1
    45    19    45   1
    46    20    46   1
    47    21    47   1
@<TRIPOS>SUBSTRUCTURE
     1  DSK     10

