@<TRIPOS>MOLECULE
3l4u_ligand_052
    47    47
SMALL
GAST_HUCK
****
This file was generated by PARSER (from files_GN.cpp)

@<TRIPOS>ATOM
      1 OAA         2.8916  -23.4840  -22.9727 O.3         1 DSK      -0.3924
      2 OAB        -4.2385  -21.5125  -22.9101 O.3         1 DSK      -0.3900
      3 OAC         1.1233  -25.6683  -21.8117 O.3         1 DSK      -0.3869
      4 OAD        -2.3418  -25.6541  -26.5214 O.3         1 DSK      -0.3845
      5 OAE        -9.0083  -24.9167  -24.7008 O.3         1 DSK      -0.3844
      6 OAF         0.6046  -22.6968  -23.6793 O.3         1 DSK      -0.3865
      7 OAG        -2.5321  -23.0879  -23.9224 O.3         1 DSK      -0.3864
      8 OAH        -1.2805  -25.7779  -22.9028 O.3         1 DSK      -0.3865
      9 OAI        -8.2681  -22.0169  -24.8461 O.3         1 DSK      -0.3840
     10 CAJ         2.3230  -23.5537  -21.6711 C.3         1 DSK       0.0727
     11 CAK        -5.6395  -21.7525  -22.9998 C.3         1 DSK       0.0944
     12 CAL        -4.3037  -24.6038  -25.5226 C.3         1 DSK       0.1385
     13 CAM        -6.6526  -25.3278  -24.1869 C.3         1 DSK       0.1386
     14 CAN         0.9327  -24.2447  -21.7285 C.3         1 DSK       0.1065
     15 CAO        -2.8663  -25.1614  -25.2805 C.3         1 DSK       0.1280
     16 CAP        -7.6826  -24.4084  -24.8735 C.3         1 DSK       0.1303
     17 CAQ        -0.0350  -23.6684  -22.8291 C.3         1 DSK       0.1114
     18 CAR        -1.8621  -24.1200  -24.6539 C.3         1 DSK       0.1137
     19 CAS        -0.7517  -24.7373  -23.7370 C.3         1 DSK       0.1119
     20 CAT        -7.5156  -23.0460  -24.1851 C.3         1 DSK       0.1349
     21 CAU        -5.9951  -22.7475  -24.1365 C.3         1 DSK       0.1711
     22 SAV        -5.1463  -24.3544  -23.9097 S.3         1 DSK       0.0029
     23 H1          3.5868  -22.7986  -22.9211 H           1 DSK       0.2095
     24 H2         -3.9957  -21.1130  -23.7710 H           1 DSK       0.2096
     25 H3          1.4224  -25.8442  -22.7272 H           1 DSK       0.2100
     26 H4         -2.4172  -24.9028  -27.1456 H           1 DSK       0.2101
     27 H5         -9.5531  -24.3843  -25.3131 H           1 DSK       0.2101
     28 H6          0.4944  -21.8406  -23.2125 H           1 DSK       0.2100
     29 H7         -3.1620  -23.5584  -23.3379 H           1 DSK       0.2100
     30 H8         -1.9808  -25.3527  -22.3591 H           1 DSK       0.2100
     31 H9         -7.6504  -21.5605  -25.4568 H           1 DSK       0.2101
     32 H10         2.2216  -22.5415  -21.2614 H           1 DSK       0.0584
     33 H11         2.9921  -24.1242  -21.0167 H           1 DSK       0.0584
     34 H12        -6.1260  -20.7965  -23.1898 H           1 DSK       0.0608
     35 H13        -5.9894  -22.1343  -22.0385 H           1 DSK       0.0608
     36 H14        -4.8613  -25.3105  -26.1541 H           1 DSK       0.0867
     37 H15        -4.2245  -23.6652  -26.0934 H           1 DSK       0.0867
     38 H16        -6.4733  -26.2339  -24.7735 H           1 DSK       0.0867
     39 H17        -7.0275  -25.6261  -23.2005 H           1 DSK       0.0867
     40 H18         0.4542  -24.0795  -20.7540 H           1 DSK       0.0643
     41 H19        -2.9542  -26.0392  -24.6368 H           1 DSK       0.0667
     42 H20        -7.4545  -24.3148  -25.9411 H           1 DSK       0.0668
     43 H21        -0.8298  -23.1273  -22.2941 H           1 DSK       0.0647
     44 H22        -1.3658  -23.6073  -25.4891 H           1 DSK       0.0647
     45 H23         0.0025  -25.1946  -24.3935 H           1 DSK       0.0647
     46 H24        -7.9028  -23.1331  -23.1617 H           1 DSK       0.0672
     47 H25        -5.7043  -22.2982  -25.0911 H           1 DSK       0.0928
@<TRIPOS>BOND
     1    10     1   1
     2    11     2   1
     3    14     3   1
     4    15     4   1
     5    16     5   1
     6    17     6   1
     7    18     7   1
     8    19     8   1
     9    20     9   1
    10    14    10   1
    11    21    11   1
    12    12    15   1
    13    22    12   1
    14    16    13   1
    15    13    22   1
    16    17    14   1
    17    15    18   1
    18    20    16   1
    19    19    17   1
    20    18    19   1
    21    20    21   1
    22    21    22   1
    23     1    23   1
    24     2    24   1
    25     3    25   1
    26     4    26   1
    27     5    27   1
    28     6    28   1
    29     7    29   1
    30     8    30   1
    31     9    31   1
    32    10    32   1
    33    10    33   1
    34    11    34   1
    35    11    35   1
    36    12    36   1
    37    12    37   1
    38    13    38   1
    39    13    39   1
    40    14    40   1
    41    15    41   1
    42    16    42   1
    43    17    43   1
    44    18    44   1
    45    19    45   1
    46    20    46   1
    47    21    47   1
@<TRIPOS>SUBSTRUCTURE
     1  DSK     10

