@<TRIPOS>MOLECULE
3l4u_ligand_012
    47    47
SMALL
GAST_HUCK
****
This file was generated by PARSER (from files_GN.cpp)

@<TRIPOS>ATOM
      1 OAA         0.8261  -15.4880  -17.3587 O.3         1 DSK      -0.3924
      2 OAB         0.3127  -20.5111  -15.7474 O.3         1 DSK      -0.3900
      3 OAC        -1.9996  -14.4181  -19.1207 O.3         1 DSK      -0.3869
      4 OAD        -1.6968  -20.8668  -21.2647 O.3         1 DSK      -0.3845
      5 OAE        -4.9955  -23.1841  -17.4245 O.3         1 DSK      -0.3844
      6 OAF         0.3771  -16.8575  -20.4812 O.3         1 DSK      -0.3865
      7 OAG        -3.3354  -18.8339  -21.6298 O.3         1 DSK      -0.3864
      8 OAH        -3.2850  -16.3984  -20.7162 O.3         1 DSK      -0.3865
      9 OAI        -3.9739  -21.4332  -15.1927 O.3         1 DSK      -0.3840
     10 CAJ        -0.4697  -15.8488  -17.8330 C.3         1 DSK       0.0727
     11 CAK        -0.7166  -21.4911  -15.6069 C.3         1 DSK       0.0944
     12 CAL        -1.9326  -19.9276  -19.0081 C.3         1 DSK       0.1385
     13 CAM        -2.9720  -22.4776  -18.6179 C.3         1 DSK       0.1386
     14 CAN        -0.7922  -15.1816  -19.2085 C.3         1 DSK       0.1065
     15 CAO        -1.4238  -19.7124  -20.4663 C.3         1 DSK       0.1280
     16 CAP        -3.9950  -22.1700  -17.5084 C.3         1 DSK       0.1303
     17 CAQ        -0.8775  -16.1782  -20.4073 C.3         1 DSK       0.1114
     18 CAR        -2.0292  -18.4564  -21.1773 C.3         1 DSK       0.1137
     19 CAS        -2.1170  -17.1371  -20.3368 C.3         1 DSK       0.1119
     20 CAT        -3.1769  -22.0504  -16.2091 C.3         1 DSK       0.1349
     21 CAU        -1.9145  -21.2106  -16.5466 C.3         1 DSK       0.1711
     22 SAV        -1.4649  -21.5301  -18.2795 S.3         1 DSK       0.0029
     23 H1          0.7432  -14.5408  -17.1239 H           1 DSK       0.2095
     24 H2          0.6386  -20.5954  -16.6733 H           1 DSK       0.2096
     25 H3         -1.8664  -13.8224  -18.3518 H           1 DSK       0.2100
     26 H4         -1.0811  -20.8012  -22.0267 H           1 DSK       0.2101
     27 H5         -5.5493  -23.0637  -18.2280 H           1 DSK       0.2101
     28 H6          0.4852  -17.1553  -21.4095 H           1 DSK       0.2100
     29 H7         -3.6825  -18.0563  -22.1219 H           1 DSK       0.2100
     30 H8         -2.9886  -15.6446  -21.2696 H           1 DSK       0.2100
     31 H9         -3.5407  -21.6639  -14.3413 H           1 DSK       0.2101
     32 H10        -1.2026  -15.5471  -17.0791 H           1 DSK       0.0584
     33 H11        -0.4904  -16.9371  -17.8979 H           1 DSK       0.0584
     34 H12        -1.0529  -21.4551  -14.5672 H           1 DSK       0.0608
     35 H13        -0.2922  -22.4832  -15.7944 H           1 DSK       0.0608
     36 H14        -3.0163  -19.7899  -18.9574 H           1 DSK       0.0867
     37 H15        -1.4745  -19.1577  -18.3809 H           1 DSK       0.0867
     38 H16        -3.3896  -22.2542  -19.6050 H           1 DSK       0.0867
     39 H17        -2.7056  -23.5352  -18.5892 H           1 DSK       0.0867
     40 H18         0.0001  -14.4594  -19.4375 H           1 DSK       0.0643
     41 H19        -0.3386  -19.6186  -20.4163 H           1 DSK       0.0667
     42 H20        -4.4956  -21.2157  -17.7170 H           1 DSK       0.0668
     43 H21        -0.9574  -15.5858  -21.3244 H           1 DSK       0.0647
     44 H22        -1.4336  -18.2546  -22.0740 H           1 DSK       0.0647
     45 H23        -2.3033  -17.4105  -19.2992 H           1 DSK       0.0647
     46 H24        -2.8977  -23.0576  -15.8715 H           1 DSK       0.0672
     47 H25        -2.1813  -20.1646  -16.4181 H           1 DSK       0.0928
@<TRIPOS>BOND
     1    10     1   1
     2    11     2   1
     3    14     3   1
     4    15     4   1
     5    16     5   1
     6    17     6   1
     7    18     7   1
     8    19     8   1
     9    20     9   1
    10    14    10   1
    11    21    11   1
    12    12    15   1
    13    22    12   1
    14    16    13   1
    15    13    22   1
    16    17    14   1
    17    15    18   1
    18    20    16   1
    19    19    17   1
    20    18    19   1
    21    20    21   1
    22    21    22   1
    23     1    23   1
    24     2    24   1
    25     3    25   1
    26     4    26   1
    27     5    27   1
    28     6    28   1
    29     7    29   1
    30     8    30   1
    31     9    31   1
    32    10    32   1
    33    10    33   1
    34    11    34   1
    35    11    35   1
    36    12    36   1
    37    12    37   1
    38    13    38   1
    39    13    39   1
    40    14    40   1
    41    15    41   1
    42    16    42   1
    43    17    43   1
    44    18    44   1
    45    19    45   1
    46    20    46   1
    47    21    47   1
@<TRIPOS>SUBSTRUCTURE
     1  DSK     10

