@<TRIPOS>MOLECULE
3l4w_ligand_013
    32    32
SMALL
GAST_HUCK
****
This file was generated by PARSER (from files_GN.cpp)

@<TRIPOS>ATOM
      1 OAA        40.8125   88.4025   34.4341 O.3         1 MIG      -0.3898
      2 OAB        44.5195   86.4322   31.9351 O.3         1 MIG      -0.3894
      3 OAC        39.3568   85.9953   28.6252 O.3         1 MIG      -0.3838
      4 OAD        41.4830   84.3036   27.6606 O.3         1 MIG      -0.3862
      5 OAE        43.2391   83.2567   29.6509 O.3         1 MIG      -0.3835
      6 CAF        41.3780   88.1542   33.1529 C.3         1 MIG       0.0841
      7 CAG        44.0363   85.0912   31.8860 C.3         1 MIG       0.0894
      8 CAH        41.5730   86.6337   32.9477 C.3         1 MIG      -0.0076
      9 CAI        40.4771   86.2542   30.7590 C.3         1 MIG      -0.0022
     10 CAJ        40.6349   85.9578   29.2520 C.3         1 MIG       0.1231
     11 CAK        41.3115   84.5836   29.0528 C.3         1 MIG       0.1171
     12 CAL        42.6814   84.5666   29.7832 C.3         1 MIG       0.1281
     13 CAM        42.5894   84.9869   31.2906 C.3         1 MIG       0.0319
     14 NAN        41.7853   86.2549   31.5012 N.4         1 MIG       0.2444
     15 H1         40.4530   89.3122   34.3782 H           1 MIG       0.2096
     16 H2         44.5929   86.7348   31.0070 H           1 MIG       0.2097
     17 H3         39.1811   86.9557   28.5057 H           1 MIG       0.2101
     18 H4         42.1937   84.9036   27.3598 H           1 MIG       0.2100
     19 H5         42.6321   82.6588   30.1367 H           1 MIG       0.2102
     20 H6         42.3399   88.6677   33.0743 H           1 MIG       0.0610
     21 H7         40.7047   88.5721   32.4062 H           1 MIG       0.0610
     22 H8         44.0467   84.6976   32.9032 H           1 MIG       0.0614
     23 H9         44.7587   84.4982   31.3206 H           1 MIG       0.0614
     24 H10        40.7208   86.0955   33.3720 H           1 MIG       0.0837
     25 H11        42.4262   86.3686   33.5708 H           1 MIG       0.0837
     26 H12        39.7978   85.5135   31.1953 H           1 MIG       0.0841
     27 H13        39.9924   87.2301   30.8351 H           1 MIG       0.0841
     28 H14        41.2509   86.7335   28.7932 H           1 MIG       0.0674
     29 H15        40.6665   83.8027   29.4679 H           1 MIG       0.0649
     30 H16        43.3534   85.2588   29.2674 H           1 MIG       0.0678
     31 H17        42.0730   84.1729   31.8126 H           1 MIG       0.0901
     32 H18        42.3407   87.0070   31.0868 H           1 MIG       0.2040
@<TRIPOS>BOND
     1     6     1   1
     2     7     2   1
     3    10     3   1
     4    11     4   1
     5    12     5   1
     6     8     6   1
     7    13     7   1
     8    14     8   1
     9    10     9   1
    10     9    14   1
    11    11    10   1
    12    12    11   1
    13    12    13   1
    14    13    14   1
    15     1    15   1
    16     2    16   1
    17     3    17   1
    18     4    18   1
    19     5    19   1
    20     6    20   1
    21     6    21   1
    22     7    22   1
    23     7    23   1
    24     8    24   1
    25     8    25   1
    26     9    26   1
    27     9    27   1
    28    10    28   1
    29    11    29   1
    30    12    30   1
    31    13    31   1
    32    14    32   1
@<TRIPOS>SUBSTRUCTURE
     1  MIG      6

