@<TRIPOS>MOLECULE
3l7b_ligand_003
    33    34
SMALL
GAST_HUCK
****
This file was generated by PARSER (from files_GN.cpp)

@<TRIPOS>ATOM
      1 C1         34.9878   22.9089   29.7553 C.3         1 DKZ       0.2111
      2 N1         34.4204   22.1972   28.6109 N.am        1 DKZ      -0.1467
      3 C2         36.1592   23.9081   29.4592 C.3         1 DKZ       0.1450
      4 N2         33.5233   22.1050   26.4589 N.am        1 DKZ      -0.1924
      5 O2         37.2739   23.2313   28.8680 O.3         1 DKZ      -0.3832
      6 C3         36.5672   24.6549   30.7574 C.3         1 DKZ       0.1601
      7 F3         37.5058   25.6187   30.4669 F           1 DKZ      -0.2398
      8 N3         32.8343   20.0917   25.5044 N.2         1 DKZ      -0.4291
      9 C4         35.3198   25.2896   31.4332 C.3         1 DKZ       0.1171
     10 O4         35.6886   25.9441   32.6405 O.3         1 DKZ      -0.3862
     11 C5         34.2297   24.2075   31.6912 C.3         1 DKZ       0.1138
     12 O5         33.8958   23.5773   30.4274 O.3         1 DKZ      -0.3357
     13 C6         32.9482   24.7317   32.4112 C.3         1 DKZ       0.0730
     14 O6         31.7728   24.6257   31.6077 O.3         1 DKZ      -0.3924
     15 C7         34.1802   20.8482   28.7316 C.2         1 DKZ       0.0739
     16 C8         33.6563   20.1200   27.7332 C.2         1 DKZ       0.0019
     17 C9         33.3392   20.7651   26.5513 C.2         1 DKZ       0.0853
     18 C10        34.0187   22.8065   27.4691 C.2         1 DKZ       0.3488
     19 O10        34.0453   24.0175   27.2876 O.2         1 DKZ      -0.3777
     20 H1         35.4142   22.1786   30.4609 H           1 DKZ       0.1013
     21 H2         35.8532   24.6742   28.7592 H           1 DKZ       0.0680
     22 H3         33.2744   22.5728   25.6494 H           1 DKZ       0.2412
     23 H4         37.6331   22.6564   29.5703 H           1 DKZ       0.2101
     24 H5         37.0301   23.9400   31.4432 H           1 DKZ       0.0706
     25 H6         32.6882   19.1351   25.5636 H           1 DKZ       0.0340
     26 H7         34.9070   26.0512   30.7611 H           1 DKZ       0.0650
     27 H8         35.9017   25.2261   33.2785 H           1 DKZ       0.2100
     28 H9         34.6748   23.4547   32.3512 H           1 DKZ       0.0647
     29 H10        33.0650   25.7675   32.7263 H           1 DKZ       0.0584
     30 H11        32.7677   24.1363   33.3075 H           1 DKZ       0.0584
     31 H12        31.4747   25.5484   31.4495 H           1 DKZ       0.2095
     32 H13        34.3648   20.3790   29.5910 H           1 DKZ       0.1288
     33 H14        33.4823   19.1507   27.8454 H           1 DKZ       0.0330
@<TRIPOS>BOND
     1     2     1   1
     2     1     3   1
     3     1    12   1
     4     2    15   1
     5    18     2  am
     6     3     5   1
     7     3     6   1
     8     4    17   1
     9     4    18  am
    10     6     7   1
    11     6     9   1
    12    17     8   2
    13     9    10   1
    14     9    11   1
    15    11    12   1
    16    11    13   1
    17    13    14   1
    18    15    16   2
    19    16    17   1
    20    18    19   2
    21     1    20   1
    22     3    21   1
    23     4    22   1
    24     5    23   1
    25     6    24   1
    26     8    25   1
    27     9    26   1
    28    10    27   1
    29    11    28   1
    30    13    29   1
    31    13    30   1
    32    14    31   1
    33    15    32   1
    34    16    33   1
@<TRIPOS>SUBSTRUCTURE
     1  DKZ      1

