@<TRIPOS>MOLECULE
3l7b_ligand_011
    33    34
SMALL
GAST_HUCK
****
This file was generated by PARSER (from files_GN.cpp)

@<TRIPOS>ATOM
      1 C1         35.6210   25.3744   34.0745 C.3         1 DKZ       0.2111
      2 N1         36.3079   26.2943   34.9788 N.am        1 DKZ      -0.1467
      3 C2         34.1928   25.8858   33.7058 C.3         1 DKZ       0.1450
      4 N2         37.6293   28.1702   35.3989 N.am        1 DKZ      -0.1924
      5 O2         33.3408   25.9869   34.8438 O.3         1 DKZ      -0.3832
      6 C3         33.5427   24.9535   32.6506 C.3         1 DKZ       0.1601
      7 F3         32.3019   25.4259   32.2965 F           1 DKZ      -0.2398
      8 N3         38.2454   28.7774   37.5524 N.2         1 DKZ      -0.4291
      9 C4         34.4600   24.8226   31.4104 C.3         1 DKZ       0.1171
     10 O4         33.8964   23.9114   30.4714 O.3         1 DKZ      -0.3862
     11 C5         35.8848   24.3352   31.8265 C.3         1 DKZ       0.1138
     12 O5         36.4155   25.1672   32.8783 O.3         1 DKZ      -0.3357
     13 C6         36.8978   24.3470   30.6370 C.3         1 DKZ       0.0730
     14 O6         37.1984   23.0433   30.1406 O.3         1 DKZ      -0.3924
     15 C7         36.2422   26.0714   36.3306 C.2         1 DKZ       0.0739
     16 C8         36.8583   26.8724   37.2175 C.2         1 DKZ       0.0019
     17 C9         37.5848   27.9471   36.7373 C.2         1 DKZ       0.0853
     18 C10        36.9990   27.3737   34.5423 C.2         1 DKZ       0.3488
     19 O10        37.0928   27.6887   33.3627 O.2         1 DKZ      -0.3777
     20 H1         35.5196   24.3900   34.5495 H           1 DKZ       0.1013
     21 H2         34.2874   26.8966   33.2909 H           1 DKZ       0.0680
     22 H3         38.1319   28.9304   35.0688 H           1 DKZ       0.2412
     23 H4         32.9068   25.1095   34.9540 H           1 DKZ       0.2101
     24 H5         33.3923   23.9649   33.0949 H           1 DKZ       0.0706
     25 H6         38.2318   28.6440   38.5125 H           1 DKZ       0.0340
     26 H7         34.5416   25.8001   30.9305 H           1 DKZ       0.0650
     27 H8         33.1645   24.4028   30.0410 H           1 DKZ       0.2100
     28 H9         35.8031   23.3182   32.2158 H           1 DKZ       0.0647
     29 H10        37.8406   24.8107   30.9307 H           1 DKZ       0.0584
     30 H11        36.5059   24.9316   29.7967 H           1 DKZ       0.0584
     31 H12        37.8597   22.6615   30.7575 H           1 DKZ       0.2095
     32 H13        35.7217   25.3009   36.6865 H           1 DKZ       0.1288
     33 H14        36.7850   26.6959   38.1905 H           1 DKZ       0.0330
@<TRIPOS>BOND
     1     2     1   1
     2     1     3   1
     3     1    12   1
     4     2    15   1
     5    18     2  am
     6     3     5   1
     7     3     6   1
     8     4    17   1
     9     4    18  am
    10     6     7   1
    11     6     9   1
    12    17     8   2
    13     9    10   1
    14     9    11   1
    15    11    12   1
    16    11    13   1
    17    13    14   1
    18    15    16   2
    19    16    17   1
    20    18    19   2
    21     1    20   1
    22     3    21   1
    23     4    22   1
    24     5    23   1
    25     6    24   1
    26     8    25   1
    27     9    26   1
    28    10    27   1
    29    11    28   1
    30    13    29   1
    31    13    30   1
    32    14    31   1
    33    15    32   1
    34    16    33   1
@<TRIPOS>SUBSTRUCTURE
     1  DKZ      1

