@<TRIPOS>MOLECULE
3l7b_ligand_026
    33    34
SMALL
GAST_HUCK
****
This file was generated by PARSER (from files_GN.cpp)

@<TRIPOS>ATOM
      1 C1         33.4887   22.9518   28.8096 C.3         1 DKZ       0.2111
      2 N1         32.6159   23.1275   27.6563 N.am        1 DKZ      -0.1467
      3 C2         35.0141   22.9688   28.4685 C.3         1 DKZ       0.1450
      4 N2         31.8325   24.4070   25.8716 N.am        1 DKZ      -0.1924
      5 O2         35.3307   21.8656   27.6207 O.3         1 DKZ      -0.3832
      6 C3         35.8686   22.9238   29.7675 C.3         1 DKZ       0.1601
      7 F3         37.2028   23.0720   29.4567 F           1 DKZ      -0.2398
      8 N3         30.1473   23.6622   24.4689 N.2         1 DKZ      -0.4291
      9 C4         35.4280   24.0291   30.7656 C.3         1 DKZ       0.1171
     10 O4         36.1309   23.8856   32.0001 O.3         1 DKZ      -0.3862
     11 C5         33.8948   23.9488   31.0071 C.3         1 DKZ       0.1138
     12 O5         33.1784   23.9943   29.7540 O.3         1 DKZ      -0.3357
     13 C6         33.3282   25.0995   31.8677 C.3         1 DKZ       0.0730
     14 O6         31.9151   24.9282   31.9884 O.3         1 DKZ      -0.3924
     15 C7         31.6973   22.1626   27.3372 C.2         1 DKZ       0.0739
     16 C8         30.8507   22.2992   26.2980 C.2         1 DKZ       0.0019
     17 C9         30.9325   23.4533   25.5363 C.2         1 DKZ       0.0853
     18 C10        32.6421   24.2553   26.9134 C.2         1 DKZ       0.3488
     19 O10        33.3697   25.2052   27.1471 O.2         1 DKZ      -0.3777
     20 H1         33.2908   21.9929   29.3027 H           1 DKZ       0.1013
     21 H2         35.2873   23.8833   27.9386 H           1 DKZ       0.0680
     22 H3         31.8929   25.2115   25.3292 H           1 DKZ       0.2412
     23 H4         35.0792   22.1628   26.7148 H           1 DKZ       0.2101
     24 H5         35.7495   21.9446   30.2389 H           1 DKZ       0.0706
     25 H6         29.4970   22.9952   24.2095 H           1 DKZ       0.0340
     26 H7         35.6729   25.0078   30.3424 H           1 DKZ       0.0650
     27 H8         37.0752   24.0685   31.7824 H           1 DKZ       0.2100
     28 H9         33.6656   23.0119   31.5194 H           1 DKZ       0.0647
     29 H10        33.5357   26.0600   31.3881 H           1 DKZ       0.0584
     30 H11        33.7737   25.0952   32.8682 H           1 DKZ       0.0584
     31 H12        31.5494   25.8367   31.9528 H           1 DKZ       0.2095
     32 H13        31.6251   21.3326   27.8796 H           1 DKZ       0.1288
     33 H14        30.1829   21.5916   26.0813 H           1 DKZ       0.0330
@<TRIPOS>BOND
     1     2     1   1
     2     1     3   1
     3     1    12   1
     4     2    15   1
     5    18     2  am
     6     3     5   1
     7     3     6   1
     8     4    17   1
     9     4    18  am
    10     6     7   1
    11     6     9   1
    12    17     8   2
    13     9    10   1
    14     9    11   1
    15    11    12   1
    16    11    13   1
    17    13    14   1
    18    15    16   2
    19    16    17   1
    20    18    19   2
    21     1    20   1
    22     3    21   1
    23     4    22   1
    24     5    23   1
    25     6    24   1
    26     8    25   1
    27     9    26   1
    28    10    27   1
    29    11    28   1
    30    13    29   1
    31    13    30   1
    32    14    31   1
    33    15    32   1
    34    16    33   1
@<TRIPOS>SUBSTRUCTURE
     1  DKZ      1

