@<TRIPOS>MOLECULE
3l7b_ligand_017
    33    34
SMALL
GAST_HUCK
****
This file was generated by PARSER (from files_GN.cpp)

@<TRIPOS>ATOM
      1 C1         32.1516   23.3347   27.0620 C.3         1 DKZ       0.2111
      2 N1         31.3240   24.4944   27.4175 N.am        1 DKZ      -0.1467
      3 C2         33.1986   22.9710   28.1710 C.3         1 DKZ       0.1450
      4 N2         31.1667   26.7216   28.1146 N.am        1 DKZ      -0.1924
      5 O2         34.1380   24.0230   28.3979 O.3         1 DKZ      -0.3832
      6 C3         33.9802   21.6800   27.7879 C.3         1 DKZ       0.1601
      7 F3         34.8319   21.3196   28.8101 F           1 DKZ      -0.2398
      8 N3         29.1630   27.6049   28.9375 N.2         1 DKZ      -0.4291
      9 C4         33.0179   20.5007   27.4958 C.3         1 DKZ       0.1171
     10 O4         33.7769   19.3907   27.0141 O.3         1 DKZ      -0.3862
     11 C5         31.9489   20.9104   26.4411 C.3         1 DKZ       0.1138
     12 O5         31.3296   22.1660   26.8044 O.3         1 DKZ      -0.3357
     13 C6         30.8046   19.8549   26.3094 C.3         1 DKZ       0.0730
     14 O6         30.5741   19.4608   24.9610 O.3         1 DKZ      -0.3924
     15 C7         29.9634   24.3871   27.5742 C.2         1 DKZ       0.0739
     16 C8         29.2153   25.3986   28.0563 C.2         1 DKZ       0.0019
     17 C9         29.8415   26.5893   28.3775 C.2         1 DKZ       0.0853
     18 C10        31.8791   25.7115   27.6184 C.2         1 DKZ       0.3488
     19 O10        33.0549   25.9559   27.3867 O.2         1 DKZ      -0.3777
     20 H1         32.6790   23.5627   26.1262 H           1 DKZ       0.1013
     21 H2         32.6652   22.8008   29.1127 H           1 DKZ       0.0680
     22 H3         31.6049   27.5603   28.3190 H           1 DKZ       0.2412
     23 H4         34.6725   23.7308   29.1768 H           1 DKZ       0.2101
     24 H5         34.5924   21.8703   26.8980 H           1 DKZ       0.0706
     25 H6         28.2134   27.5088   29.1373 H           1 DKZ       0.0340
     26 H7         32.5197   20.2182   28.4309 H           1 DKZ       0.0650
     27 H8         34.2262   19.0162   27.8042 H           1 DKZ       0.2100
     28 H9         32.4395   21.0411   25.4742 H           1 DKZ       0.0647
     29 H10        29.8631   20.2600   26.6913 H           1 DKZ       0.0584
     30 H11        31.0174   18.9512   26.8896 H           1 DKZ       0.0584
     31 H12        31.0938   18.6367   24.8492 H           1 DKZ       0.2095
     32 H13        29.4838   23.5596   27.3274 H           1 DKZ       0.1288
     33 H14        28.2321   25.2961   28.1690 H           1 DKZ       0.0330
@<TRIPOS>BOND
     1     2     1   1
     2     1     3   1
     3     1    12   1
     4     2    15   1
     5    18     2  am
     6     3     5   1
     7     3     6   1
     8     4    17   1
     9     4    18  am
    10     6     7   1
    11     6     9   1
    12    17     8   2
    13     9    10   1
    14     9    11   1
    15    11    12   1
    16    11    13   1
    17    13    14   1
    18    15    16   2
    19    16    17   1
    20    18    19   2
    21     1    20   1
    22     3    21   1
    23     4    22   1
    24     5    23   1
    25     6    24   1
    26     8    25   1
    27     9    26   1
    28    10    27   1
    29    11    28   1
    30    13    29   1
    31    13    30   1
    32    14    31   1
    33    15    32   1
    34    16    33   1
@<TRIPOS>SUBSTRUCTURE
     1  DKZ      1

