@<TRIPOS>MOLECULE
3l7b_ligand_007
    33    34
SMALL
GAST_HUCK
****
This file was generated by PARSER (from files_GN.cpp)

@<TRIPOS>ATOM
      1 C1         36.6186   24.9150   32.9252 C.3         1 DKZ       0.2111
      2 N1         37.9115   24.9628   32.2373 N.am        1 DKZ      -0.1467
      3 C2         36.3095   25.8998   34.0974 C.3         1 DKZ       0.1450
      4 N2         40.0591   25.7805   31.8096 N.am        1 DKZ      -0.1924
      5 O2         37.2296   25.6842   35.1679 O.3         1 DKZ      -0.3832
      6 C3         34.8627   25.6880   34.6132 C.3         1 DKZ       0.1601
      7 F3         34.5626   26.6229   35.5739 F           1 DKZ      -0.2398
      8 N3         41.5257   24.7132   30.3495 N.2         1 DKZ      -0.4291
      9 C4         33.8261   25.7748   33.4588 C.3         1 DKZ       0.1171
     10 O4         32.5083   25.4886   33.9445 O.3         1 DKZ      -0.3862
     11 C5         34.2363   24.8048   32.3090 C.3         1 DKZ       0.1138
     12 O5         35.6002   25.0799   31.9093 O.3         1 DKZ      -0.3357
     13 C6         33.3741   24.9184   31.0231 C.3         1 DKZ       0.0730
     14 O6         31.9848   24.7102   31.2607 O.3         1 DKZ      -0.3924
     15 C7         38.1621   23.9546   31.3325 C.2         1 DKZ       0.0739
     16 C8         39.3257   23.8510   30.6662 C.2         1 DKZ       0.0019
     17 C9         40.3157   24.7834   30.9316 C.2         1 DKZ       0.0853
     18 C10        38.8848   25.8839   32.4282 C.2         1 DKZ       0.3488
     19 O10        38.8011   26.8649   33.1507 O.2         1 DKZ      -0.3777
     20 H1         36.5394   23.9043   33.3453 H           1 DKZ       0.1013
     21 H2         36.3969   26.9311   33.7403 H           1 DKZ       0.0680
     22 H3         40.7489   26.4367   31.9860 H           1 DKZ       0.2412
     23 H4         37.1256   26.4609   35.7593 H           1 DKZ       0.2101
     24 H5         34.7941   24.6981   35.0709 H           1 DKZ       0.0706
     25 H6         41.7276   23.9959   29.7236 H           1 DKZ       0.0340
     26 H7         33.8106   26.7924   33.0567 H           1 DKZ       0.0650
     27 H8         32.6179   25.1062   34.8431 H           1 DKZ       0.2100
     28 H9         34.1644   23.7703   32.6637 H           1 DKZ       0.0647
     29 H10        33.6989   24.1560   30.3090 H           1 DKZ       0.0584
     30 H11        33.5107   25.8986   30.5572 H           1 DKZ       0.0584
     31 H12        31.6085   25.6101   31.3617 H           1 DKZ       0.2095
     32 H13        37.4675   23.2671   31.1363 H           1 DKZ       0.1288
     33 H14        39.4762   23.1171   30.0057 H           1 DKZ       0.0330
@<TRIPOS>BOND
     1     2     1   1
     2     1     3   1
     3     1    12   1
     4     2    15   1
     5    18     2  am
     6     3     5   1
     7     3     6   1
     8     4    17   1
     9     4    18  am
    10     6     7   1
    11     6     9   1
    12    17     8   2
    13     9    10   1
    14     9    11   1
    15    11    12   1
    16    11    13   1
    17    13    14   1
    18    15    16   2
    19    16    17   1
    20    18    19   2
    21     1    20   1
    22     3    21   1
    23     4    22   1
    24     5    23   1
    25     6    24   1
    26     8    25   1
    27     9    26   1
    28    10    27   1
    29    11    28   1
    30    13    29   1
    31    13    30   1
    32    14    31   1
    33    15    32   1
    34    16    33   1
@<TRIPOS>SUBSTRUCTURE
     1  DKZ      1

