@<TRIPOS>MOLECULE
3l7b_ligand_013
    33    34
SMALL
GAST_HUCK
****
This file was generated by PARSER (from files_GN.cpp)

@<TRIPOS>ATOM
      1 C1         31.4777   22.8254   27.2047 C.3         1 DKZ       0.2111
      2 N1         30.9483   24.1603   27.5024 N.am        1 DKZ      -0.1467
      3 C2         30.5751   21.7177   26.5582 C.3         1 DKZ       0.1450
      4 N2         31.3262   26.3646   28.2083 N.am        1 DKZ      -0.1924
      5 O2         29.4562   21.3645   27.3748 O.3         1 DKZ      -0.3832
      6 C3         31.3812   20.4101   26.3047 C.3         1 DKZ       0.1601
      7 F3         30.6201   19.5171   25.5844 F           1 DKZ      -0.2398
      8 N3         29.5759   27.7232   28.9370 N.2         1 DKZ      -0.4291
      9 C4         32.7201   20.6513   25.5564 C.3         1 DKZ       0.1171
     10 O4         33.5255   19.4752   25.5945 O.3         1 DKZ      -0.3862
     11 C5         33.4865   21.8519   26.1773 C.3         1 DKZ       0.1138
     12 O5         32.6050   22.9855   26.3068 O.3         1 DKZ      -0.3357
     13 C6         34.7003   22.3131   25.3306 C.3         1 DKZ       0.0730
     14 O6         34.2995   22.7898   24.0482 O.3         1 DKZ      -0.3924
     15 C7         29.6018   24.4027   27.6191 C.2         1 DKZ       0.0739
     16 C8         29.1134   25.5592   28.0994 C.2         1 DKZ       0.0019
     17 C9         30.0027   26.5663   28.4062 C.2         1 DKZ       0.0853
     18 C10        31.7866   25.1819   27.8065 C.2         1 DKZ       0.3488
     19 O10        33.0068   25.0813   27.7717 O.2         1 DKZ      -0.3777
     20 H1         31.8399   22.4432   28.1662 H           1 DKZ       0.1013
     21 H2         30.1874   22.1038   25.6097 H           1 DKZ       0.0680
     22 H3         31.9496   27.0829   28.4139 H           1 DKZ       0.2412
     23 H4         28.7933   20.9945   26.7405 H           1 DKZ       0.2101
     24 H5         31.6070   19.9467   27.2688 H           1 DKZ       0.0706
     25 H6         28.6348   27.8406   29.1373 H           1 DKZ       0.0340
     26 H7         32.5029   20.8746   24.5144 H           1 DKZ       0.0650
     27 H8         32.9291   18.7332   25.3636 H           1 DKZ       0.2100
     28 H9         33.8642   21.5654   27.1670 H           1 DKZ       0.0647
     29 H10        35.3895   21.4806   25.1952 H           1 DKZ       0.0584
     30 H11        35.2285   23.1141   25.8549 H           1 DKZ       0.0584
     31 H12        33.9109   23.6800   24.1963 H           1 DKZ       0.2095
     32 H13        28.9437   23.7020   27.3764 H           1 DKZ       0.1288
     33 H14        28.1363   25.6894   28.2279 H           1 DKZ       0.0330
@<TRIPOS>BOND
     1     2     1   1
     2     1     3   1
     3     1    12   1
     4     2    15   1
     5    18     2  am
     6     3     5   1
     7     3     6   1
     8     4    17   1
     9     4    18  am
    10     6     7   1
    11     6     9   1
    12    17     8   2
    13     9    10   1
    14     9    11   1
    15    11    12   1
    16    11    13   1
    17    13    14   1
    18    15    16   2
    19    16    17   1
    20    18    19   2
    21     1    20   1
    22     3    21   1
    23     4    22   1
    24     5    23   1
    25     6    24   1
    26     8    25   1
    27     9    26   1
    28    10    27   1
    29    11    28   1
    30    13    29   1
    31    13    30   1
    32    14    31   1
    33    15    32   1
    34    16    33   1
@<TRIPOS>SUBSTRUCTURE
     1  DKZ      1

