@<TRIPOS>MOLECULE
3l7b_ligand_025
    33    34
SMALL
GAST_HUCK
****
This file was generated by PARSER (from files_GN.cpp)

@<TRIPOS>ATOM
      1 C1         33.3171   22.4665   27.3555 C.3         1 DKZ       0.2111
      2 N1         32.5197   21.5003   26.6161 N.am        1 DKZ      -0.1467
      3 C2         34.1521   21.8135   28.4914 C.3         1 DKZ       0.1450
      4 N2         30.4722   20.6546   25.9052 N.am        1 DKZ      -0.1924
      5 O2         33.2678   21.1648   29.4017 O.3         1 DKZ      -0.3832
      6 C3         35.0109   22.8979   29.1998 C.3         1 DKZ       0.1601
      7 F3         35.8168   22.3148   30.1538 F           1 DKZ      -0.2398
      8 N3         30.3434   18.6874   24.6684 N.2         1 DKZ      -0.4291
      9 C4         35.8768   23.6650   28.1636 C.3         1 DKZ       0.1171
     10 O4         36.5697   24.7184   28.8256 O.3         1 DKZ      -0.3862
     11 C5         35.0019   24.1999   26.9857 C.3         1 DKZ       0.1138
     12 O5         34.2001   23.1343   26.4299 O.3         1 DKZ      -0.3357
     13 C6         35.8284   24.8573   25.8408 C.3         1 DKZ       0.0730
     14 O6         35.4532   24.3808   24.5492 O.3         1 DKZ      -0.3924
     15 C7         33.1539   20.4859   25.9507 C.2         1 DKZ       0.0739
     16 C8         32.4707   19.5406   25.2832 C.2         1 DKZ       0.0019
     17 C9         31.0865   19.6215   25.2728 C.2         1 DKZ       0.0853
     18 C10        31.1724   21.5724   26.5607 C.2         1 DKZ       0.3488
     19 O10        30.5115   22.4470   27.1059 O.2         1 DKZ      -0.3777
     20 H1         32.6796   23.2252   27.8213 H           1 DKZ       0.1013
     21 H2         34.8225   21.0553   28.0736 H           1 DKZ       0.0680
     22 H3         29.5035   20.7103   25.8911 H           1 DKZ       0.2412
     23 H4         33.6915   20.2993   29.5926 H           1 DKZ       0.2101
     24 H5         34.3505   23.6040   29.7113 H           1 DKZ       0.0706
     25 H6         30.7740   17.9371   24.2270 H           1 DKZ       0.0340
     26 H7         36.6256   22.9744   27.7681 H           1 DKZ       0.0650
     27 H8         37.3233   24.9388   28.2379 H           1 DKZ       0.2100
     28 H9         34.3174   24.9580   27.3681 H           1 DKZ       0.0647
     29 H10        36.8954   24.6616   25.9622 H           1 DKZ       0.0584
     30 H11        35.6815   25.9397   25.8486 H           1 DKZ       0.0584
     31 H12        34.5221   24.6612   24.4262 H           1 DKZ       0.2095
     32 H13        34.1469   20.4172   25.9505 H           1 DKZ       0.1288
     33 H14        32.9483   18.8017   24.8247 H           1 DKZ       0.0330
@<TRIPOS>BOND
     1     2     1   1
     2     1     3   1
     3     1    12   1
     4     2    15   1
     5    18     2  am
     6     3     5   1
     7     3     6   1
     8     4    17   1
     9     4    18  am
    10     6     7   1
    11     6     9   1
    12    17     8   2
    13     9    10   1
    14     9    11   1
    15    11    12   1
    16    11    13   1
    17    13    14   1
    18    15    16   2
    19    16    17   1
    20    18    19   2
    21     1    20   1
    22     3    21   1
    23     4    22   1
    24     5    23   1
    25     6    24   1
    26     8    25   1
    27     9    26   1
    28    10    27   1
    29    11    28   1
    30    13    29   1
    31    13    30   1
    32    14    31   1
    33    15    32   1
    34    16    33   1
@<TRIPOS>SUBSTRUCTURE
     1  DKZ      1

