@<TRIPOS>MOLECULE
3l7b_ligand_018
    33    34
SMALL
GAST_HUCK
****
This file was generated by PARSER (from files_GN.cpp)

@<TRIPOS>ATOM
      1 C1         32.7239   22.3444   27.3266 C.3         1 DKZ       0.2111
      2 N1         32.8819   20.8979   27.4367 N.am        1 DKZ      -0.1467
      3 C2         31.4711   22.8007   26.5153 C.3         1 DKZ       0.1450
      4 N2         32.1147   18.7676   28.0048 N.am        1 DKZ      -0.1924
      5 O2         31.5027   22.1557   25.2260 O.3         1 DKZ      -0.3832
      6 C3         31.4680   24.3447   26.3663 C.3         1 DKZ       0.1601
      7 F3         30.3159   24.7471   25.7551 F           1 DKZ      -0.2398
      8 N3         33.5222   16.9209   27.9759 N.2         1 DKZ      -0.4291
      9 C4         31.6240   25.0305   27.7547 C.3         1 DKZ       0.1171
     10 O4         31.8020   26.4413   27.5434 O.3         1 DKZ      -0.3862
     11 C5         32.8164   24.4034   28.5727 C.3         1 DKZ       0.1138
     12 O5         32.6870   22.9656   28.6128 O.3         1 DKZ      -0.3357
     13 C6         32.9552   24.9588   30.0175 C.3         1 DKZ       0.0730
     14 O6         31.8083   24.6675   30.8147 O.3         1 DKZ      -0.3924
     15 C7         34.0932   20.3356   27.1074 C.2         1 DKZ       0.0739
     16 C8         34.3329   19.0195   27.2248 C.2         1 DKZ       0.0019
     17 C9         33.3161   18.2177   27.7172 C.2         1 DKZ       0.0853
     18 C10        31.9054   20.0763   27.8814 C.2         1 DKZ       0.3488
     19 O10        30.7894   20.4631   28.2067 O.2         1 DKZ      -0.3777
     20 H1         33.5767   22.7515   26.7805 H           1 DKZ       0.1013
     21 H2         30.5417   22.4977   27.0270 H           1 DKZ       0.0680
     22 H3         31.3977   18.1998   28.3374 H           1 DKZ       0.2412
     23 H4         31.1766   21.2303   25.4063 H           1 DKZ       0.2101
     24 H5         32.3051   24.6308   25.7442 H           1 DKZ       0.0706
     25 H6         34.3842   16.5150   27.8219 H           1 DKZ       0.0340
     26 H7         30.6905   24.9020   28.3359 H           1 DKZ       0.0650
     27 H8         32.0672   26.8459   28.4066 H           1 DKZ       0.2100
     28 H9         33.7440   24.6584   28.0620 H           1 DKZ       0.0647
     29 H10        33.0971   26.0326   29.9962 H           1 DKZ       0.0584
     30 H11        33.8252   24.5084   30.4921 H           1 DKZ       0.0584
     31 H12        31.5270   25.5383   31.1655 H           1 DKZ       0.2095
     32 H13        34.8478   20.9087   26.7803 H           1 DKZ       0.1288
     33 H14        35.2250   18.6482   26.9973 H           1 DKZ       0.0330
@<TRIPOS>BOND
     1     2     1   1
     2     1     3   1
     3     1    12   1
     4     2    15   1
     5    18     2  am
     6     3     5   1
     7     3     6   1
     8     4    17   1
     9     4    18  am
    10     6     7   1
    11     6     9   1
    12    17     8   2
    13     9    10   1
    14     9    11   1
    15    11    12   1
    16    11    13   1
    17    13    14   1
    18    15    16   2
    19    16    17   1
    20    18    19   2
    21     1    20   1
    22     3    21   1
    23     4    22   1
    24     5    23   1
    25     6    24   1
    26     8    25   1
    27     9    26   1
    28    10    27   1
    29    11    28   1
    30    13    29   1
    31    13    30   1
    32    14    31   1
    33    15    32   1
    34    16    33   1
@<TRIPOS>SUBSTRUCTURE
     1  DKZ      1

