@<TRIPOS>MOLECULE
3l7b_ligand_010
    33    34
SMALL
GAST_HUCK
****
This file was generated by PARSER (from files_GN.cpp)

@<TRIPOS>ATOM
      1 C1         33.4791   21.9107   27.0919 C.3         1 DKZ       0.2111
      2 N1         34.6107   22.3788   27.8807 N.am        1 DKZ      -0.1467
      3 C2         32.7717   20.5617   27.4374 C.3         1 DKZ       0.1450
      4 N2         36.3510   23.9163   28.1350 N.am        1 DKZ      -0.1924
      5 O2         33.6742   19.4664   27.2793 O.3         1 DKZ      -0.3832
      6 C3         31.5589   20.3294   26.4861 C.3         1 DKZ       0.1601
      7 F3         30.8529   19.2238   26.8949 F           1 DKZ      -0.2398
      8 N3         37.8808   23.7346   29.8866 N.2         1 DKZ      -0.4291
      9 C4         30.6247   21.5622   26.4611 C.3         1 DKZ       0.1171
     10 O4         29.6194   21.3499   25.4795 O.3         1 DKZ      -0.3862
     11 C5         31.4307   22.8669   26.1737 C.3         1 DKZ       0.1138
     12 O5         32.5028   22.9795   27.1306 O.3         1 DKZ      -0.3357
     13 C6         30.5442   24.1429   26.2270 C.3         1 DKZ       0.0730
     14 O6         31.2606   25.3023   26.6458 O.3         1 DKZ      -0.3924
     15 C7         34.9796   21.8013   29.0690 C.2         1 DKZ       0.0739
     16 C8         36.0498   22.2299   29.7667 C.2         1 DKZ       0.0019
     17 C9         36.7691   23.3045   29.2695 C.2         1 DKZ       0.0853
     18 C10        35.3029   23.4637   27.4551 C.2         1 DKZ       0.3488
     19 O10        35.0390   24.0764   26.4281 O.2         1 DKZ      -0.3777
     20 H1         33.8478   21.7820   26.0613 H           1 DKZ       0.1013
     21 H2         32.4016   20.5871   28.4657 H           1 DKZ       0.0680
     22 H3         36.8229   24.6973   27.8097 H           1 DKZ       0.2412
     23 H4         34.0814   19.3002   28.1564 H           1 DKZ       0.2101
     24 H5         31.9234   20.1348   25.4794 H           1 DKZ       0.0706
     25 H6         38.2106   23.2806   30.6788 H           1 DKZ       0.0340
     26 H7         30.1324   21.6582   27.4349 H           1 DKZ       0.0650
     27 H8         29.1181   22.1919   25.4201 H           1 DKZ       0.2100
     28 H9         31.8629   22.8184   25.1643 H           1 DKZ       0.0647
     29 H10        29.7033   24.0070   26.9124 H           1 DKZ       0.0584
     30 H11        30.1486   24.3390   25.2270 H           1 DKZ       0.0584
     31 H12        31.7738   25.0159   27.4312 H           1 DKZ       0.2095
     32 H13        34.4626   21.0463   29.4489 H           1 DKZ       0.1288
     33 H14        36.3036   21.7954   30.6193 H           1 DKZ       0.0330
@<TRIPOS>BOND
     1     2     1   1
     2     1     3   1
     3     1    12   1
     4     2    15   1
     5    18     2  am
     6     3     5   1
     7     3     6   1
     8     4    17   1
     9     4    18  am
    10     6     7   1
    11     6     9   1
    12    17     8   2
    13     9    10   1
    14     9    11   1
    15    11    12   1
    16    11    13   1
    17    13    14   1
    18    15    16   2
    19    16    17   1
    20    18    19   2
    21     1    20   1
    22     3    21   1
    23     4    22   1
    24     5    23   1
    25     6    24   1
    26     8    25   1
    27     9    26   1
    28    10    27   1
    29    11    28   1
    30    13    29   1
    31    13    30   1
    32    14    31   1
    33    15    32   1
    34    16    33   1
@<TRIPOS>SUBSTRUCTURE
     1  DKZ      1

