@<TRIPOS>MOLECULE
3l7b_ligand_020
    33    34
SMALL
GAST_HUCK
****
This file was generated by PARSER (from files_GN.cpp)

@<TRIPOS>ATOM
      1 C1         32.3826   21.9094   27.1426 C.3         1 DKZ       0.2111
      2 N1         33.4360   22.7609   26.5978 N.am        1 DKZ      -0.1467
      3 C2         30.9872   21.9902   26.4488 C.3         1 DKZ       0.1450
      4 N2         34.5674   23.7652   24.8266 N.am        1 DKZ      -0.1924
      5 O2         30.4764   23.3206   26.5370 O.3         1 DKZ      -0.3832
      6 C3         30.0073   20.9707   27.0801 C.3         1 DKZ       0.1601
      7 F3         28.8515   20.9443   26.3363 F           1 DKZ      -0.2398
      8 N3         36.3281   25.2530   25.2018 N.2         1 DKZ      -0.4291
      9 C4         30.6296   19.5468   27.1773 C.3         1 DKZ       0.1171
     10 O4         29.7387   18.6819   27.8915 O.3         1 DKZ      -0.3862
     11 C5         32.0343   19.5932   27.8566 C.3         1 DKZ       0.1138
     12 O5         32.8716   20.5497   27.1566 O.3         1 DKZ      -0.3357
     13 C6         32.7487   18.2046   27.9094 C.3         1 DKZ       0.0730
     14 O6         33.8508   18.1004   27.0041 O.3         1 DKZ      -0.3924
     15 C7         34.3312   23.3512   27.4680 C.2         1 DKZ       0.0739
     16 C8         35.3248   24.1430   27.0337 C.2         1 DKZ       0.0019
     17 C9         35.4156   24.3977   25.6754 C.2         1 DKZ       0.0853
     18 C10        33.6435   22.9233   25.2684 C.2         1 DKZ       0.3488
     19 O10        32.9938   22.3583   24.3931 O.2         1 DKZ      -0.3777
     20 H1         32.1983   22.1924   28.1839 H           1 DKZ       0.1013
     21 H2         31.0669   21.7354   25.3864 H           1 DKZ       0.0680
     22 H3         34.6215   23.9297   23.8825 H           1 DKZ       0.2412
     23 H4         30.3590   23.4913   27.4936 H           1 DKZ       0.2101
     24 H5         29.7461   21.3101   28.0799 H           1 DKZ       0.0706
     25 H6         36.9071   25.7022   25.8404 H           1 DKZ       0.0340
     26 H7         30.7473   19.1398   26.1692 H           1 DKZ       0.0650
     27 H8         29.5299   19.1453   28.7319 H           1 DKZ       0.2100
     28 H9         31.8978   19.9210   28.8990 H           1 DKZ       0.0647
     29 H10        32.0548   17.3920   27.6813 H           1 DKZ       0.0584
     30 H11        33.1310   18.0284   28.9231 H           1 DKZ       0.0584
     31 H12        34.6138   18.4042   27.5391 H           1 DKZ       0.2095
     32 H13        34.2730   23.1722   28.4486 H           1 DKZ       0.1288
     33 H14        35.9641   24.5364   27.6852 H           1 DKZ       0.0330
@<TRIPOS>BOND
     1     2     1   1
     2     1     3   1
     3     1    12   1
     4     2    15   1
     5    18     2  am
     6     3     5   1
     7     3     6   1
     8     4    17   1
     9     4    18  am
    10     6     7   1
    11     6     9   1
    12    17     8   2
    13     9    10   1
    14     9    11   1
    15    11    12   1
    16    11    13   1
    17    13    14   1
    18    15    16   2
    19    16    17   1
    20    18    19   2
    21     1    20   1
    22     3    21   1
    23     4    22   1
    24     5    23   1
    25     6    24   1
    26     8    25   1
    27     9    26   1
    28    10    27   1
    29    11    28   1
    30    13    29   1
    31    13    30   1
    32    14    31   1
    33    15    32   1
    34    16    33   1
@<TRIPOS>SUBSTRUCTURE
     1  DKZ      1

