@<TRIPOS>MOLECULE
3l7b_ligand_024
    33    34
SMALL
GAST_HUCK
****
This file was generated by PARSER (from files_GN.cpp)

@<TRIPOS>ATOM
      1 C1         32.7086   23.7100   27.8937 C.3         1 DKZ       0.2111
      2 N1         31.8497   24.6754   28.5664 N.am        1 DKZ      -0.1467
      3 C2         31.9524   22.6301   27.0527 C.3         1 DKZ       0.1450
      4 N2         31.1687   25.8172   30.4758 N.am        1 DKZ      -0.1924
      5 O2         31.1334   21.8163   27.8899 O.3         1 DKZ      -0.3832
      6 C3         32.9642   21.7526   26.2711 C.3         1 DKZ       0.1601
      7 F3         32.2997   20.8694   25.4514 F           1 DKZ      -0.2398
      8 N3         29.3132   27.2050   30.4720 N.2         1 DKZ      -0.4291
      9 C4         33.9171   22.6519   25.4382 C.3         1 DKZ       0.1171
     10 O4         34.8694   21.8542   24.7441 O.3         1 DKZ      -0.3862
     11 C5         34.6233   23.6883   26.3666 C.3         1 DKZ       0.1138
     12 O5         33.6317   24.4633   27.0768 O.3         1 DKZ      -0.3357
     13 C6         35.6140   24.6638   25.6549 C.3         1 DKZ       0.0730
     14 O6         35.5806   24.6046   24.2338 O.3         1 DKZ      -0.3924
     15 C7         30.9102   25.3699   27.8481 C.2         1 DKZ       0.0739
     16 C8         30.0604   26.2341   28.4263 C.2         1 DKZ       0.0019
     17 C9         30.1794   26.4428   29.7896 C.2         1 DKZ       0.0853
     18 C10        31.9874   24.9596   29.8805 C.2         1 DKZ       0.3488
     19 O10        32.8301   24.4459   30.6067 O.2         1 DKZ      -0.3777
     20 H1         33.3114   23.1529   28.6209 H           1 DKZ       0.1013
     21 H2         31.2932   23.1062   26.3247 H           1 DKZ       0.0680
     22 H3         31.2585   25.9744   31.4302 H           1 DKZ       0.2412
     23 H4         31.7538   21.3154   28.4597 H           1 DKZ       0.2101
     24 H5         33.5550   21.1651   26.9782 H           1 DKZ       0.0706
     25 H6         28.5591   27.6230   30.0342 H           1 DKZ       0.0340
     26 H7         33.3264   23.1789   24.6843 H           1 DKZ       0.0650
     27 H8         35.6490   21.8060   25.3365 H           1 DKZ       0.2100
     28 H9         35.2086   23.1373   27.1128 H           1 DKZ       0.0647
     29 H10        36.6385   24.4353   25.9604 H           1 DKZ       0.0584
     30 H11        35.4144   25.6986   25.9397 H           1 DKZ       0.0584
     31 H12        34.6667   24.8501   23.9826 H           1 DKZ       0.2095
     32 H13        30.8277   25.2431   26.8670 H           1 DKZ       0.1288
     33 H14        29.3728   26.7122   27.8906 H           1 DKZ       0.0330
@<TRIPOS>BOND
     1     2     1   1
     2     1     3   1
     3     1    12   1
     4     2    15   1
     5    18     2  am
     6     3     5   1
     7     3     6   1
     8     4    17   1
     9     4    18  am
    10     6     7   1
    11     6     9   1
    12    17     8   2
    13     9    10   1
    14     9    11   1
    15    11    12   1
    16    11    13   1
    17    13    14   1
    18    15    16   2
    19    16    17   1
    20    18    19   2
    21     1    20   1
    22     3    21   1
    23     4    22   1
    24     5    23   1
    25     6    24   1
    26     8    25   1
    27     9    26   1
    28    10    27   1
    29    11    28   1
    30    13    29   1
    31    13    30   1
    32    14    31   1
    33    15    32   1
    34    16    33   1
@<TRIPOS>SUBSTRUCTURE
     1  DKZ      1

