@<TRIPOS>MOLECULE
3l7b_ligand_022
    33    34
SMALL
GAST_HUCK
****
This file was generated by PARSER (from files_GN.cpp)

@<TRIPOS>ATOM
      1 C1         34.4094   24.0926   31.0903 C.3         1 DKZ       0.2111
      2 N1         34.4443   24.8414   32.3462 N.am        1 DKZ      -0.1467
      3 C2         33.3538   24.5985   30.0700 C.3         1 DKZ       0.1450
      4 N2         33.4807   25.4238   34.3931 N.am        1 DKZ      -0.1924
      5 O2         32.0331   24.5813   30.6124 O.3         1 DKZ      -0.3832
      6 C3         33.3802   23.6786   28.8198 C.3         1 DKZ       0.1601
      7 F3         32.5499   24.1788   27.8431 F           1 DKZ      -0.2398
      8 N3         34.6426   26.6905   35.9770 N.2         1 DKZ      -0.4291
      9 C4         34.8014   23.5151   28.2161 C.3         1 DKZ       0.1171
     10 O4         34.7815   22.4762   27.2282 O.3         1 DKZ      -0.3862
     11 C5         35.8604   23.2140   29.3203 C.3         1 DKZ       0.1138
     12 O5         35.6990   24.1013   30.4398 O.3         1 DKZ      -0.3357
     13 C6         37.3236   23.4222   28.8191 C.3         1 DKZ       0.0730
     14 O6         38.2357   23.6790   29.9010 O.3         1 DKZ      -0.3924
     15 C7         35.5560   25.5618   32.7208 C.2         1 DKZ       0.0739
     16 C8         35.6508   26.1995   33.8994 C.2         1 DKZ       0.0019
     17 C9         34.5840   26.1157   34.7684 C.2         1 DKZ       0.0853
     18 C10        33.4146   24.7883   33.2283 C.2         1 DKZ       0.3488
     19 O10        32.3957   24.1319   33.0486 O.2         1 DKZ      -0.3777
     20 H1         34.1945   23.0526   31.3447 H           1 DKZ       0.1013
     21 H2         33.5979   25.6226   29.7751 H           1 DKZ       0.0680
     22 H3         32.7373   25.3338   35.0102 H           1 DKZ       0.2412
     23 H4         31.8074   25.5244   30.7673 H           1 DKZ       0.2101
     24 H5         33.0047   22.6837   29.0919 H           1 DKZ       0.0706
     25 H6         35.4154   27.1846   36.2585 H           1 DKZ       0.0340
     26 H7         35.0783   24.4485   27.7144 H           1 DKZ       0.0650
     27 H8         35.6642   22.5114   26.7890 H           1 DKZ       0.2100
     28 H9         35.7762   22.1807   29.6766 H           1 DKZ       0.0647
     29 H10        37.3766   24.2810   28.1354 H           1 DKZ       0.0584
     30 H11        37.6650   22.5242   28.2785 H           1 DKZ       0.0584
     31 H12        38.4228   22.7964   30.3092 H           1 DKZ       0.2095
     32 H13        36.3565   25.6067   32.1273 H           1 DKZ       0.1288
     33 H14        36.4888   26.6772   34.1530 H           1 DKZ       0.0330
@<TRIPOS>BOND
     1     2     1   1
     2     1     3   1
     3     1    12   1
     4     2    15   1
     5    18     2  am
     6     3     5   1
     7     3     6   1
     8     4    17   1
     9     4    18  am
    10     6     7   1
    11     6     9   1
    12    17     8   2
    13     9    10   1
    14     9    11   1
    15    11    12   1
    16    11    13   1
    17    13    14   1
    18    15    16   2
    19    16    17   1
    20    18    19   2
    21     1    20   1
    22     3    21   1
    23     4    22   1
    24     5    23   1
    25     6    24   1
    26     8    25   1
    27     9    26   1
    28    10    27   1
    29    11    28   1
    30    13    29   1
    31    13    30   1
    32    14    31   1
    33    15    32   1
    34    16    33   1
@<TRIPOS>SUBSTRUCTURE
     1  DKZ      1

