@<TRIPOS>MOLECULE
3l7b_ligand_019
    33    34
SMALL
GAST_HUCK
****
This file was generated by PARSER (from files_GN.cpp)

@<TRIPOS>ATOM
      1 C1         39.1485   25.7547   34.0397 C.3         1 DKZ       0.2111
      2 N1         38.7173   25.3924   32.6929 N.am        1 DKZ      -0.1467
      3 C2         40.6861   25.9971   34.1718 C.3         1 DKZ       0.1450
      4 N2         38.4493   25.8647   30.4223 N.am        1 DKZ      -0.1924
      5 O2         41.4305   24.8185   33.8372 O.3         1 DKZ      -0.3832
      6 C3         41.0449   26.4453   35.6090 C.3         1 DKZ       0.1601
      7 F3         42.3739   26.7890   35.6747 F           1 DKZ      -0.2398
      8 N3         37.4731   24.3330   28.9629 N.2         1 DKZ      -0.4291
      9 C4         40.1698   27.6618   36.0325 C.3         1 DKZ       0.1171
     10 O4         40.4644   27.9933   37.3888 O.3         1 DKZ      -0.3862
     11 C5         38.6512   27.3578   35.8370 C.3         1 DKZ       0.1138
     12 O5         38.4110   26.9163   34.4795 O.3         1 DKZ      -0.3357
     13 C6         37.6876   28.5560   36.1289 C.3         1 DKZ       0.0730
     14 O6         38.2750   29.6620   36.8056 O.3         1 DKZ      -0.3924
     15 C7         38.1126   24.1754   32.4792 C.2         1 DKZ       0.0739
     16 C8         37.6826   23.7928   31.2644 C.2         1 DKZ       0.0019
     17 C9         37.8648   24.6586   30.2024 C.2         1 DKZ       0.0853
     18 C10        38.8510   26.2258   31.6379 C.2         1 DKZ       0.3488
     19 O10        39.3317   27.3495   31.7278 O.2         1 DKZ      -0.3777
     20 H1         38.9058   24.9563   34.7447 H           1 DKZ       0.1013
     21 H2         40.9990   26.8013   33.4952 H           1 DKZ       0.0680
     22 H3         38.5712   26.4737   29.6802 H           1 DKZ       0.2412
     23 H4         41.8281   25.0252   32.9610 H           1 DKZ       0.2101
     24 H5         40.8773   25.6191   36.3007 H           1 DKZ       0.0706
     25 H6         37.0601   23.4754   28.7865 H           1 DKZ       0.0340
     26 H7         40.4473   28.5168   35.4103 H           1 DKZ       0.0650
     27 H8         40.1929   27.2096   37.9105 H           1 DKZ       0.2100
     28 H9         38.3868   26.5509   36.5288 H           1 DKZ       0.0647
     29 H10        36.8523   28.2098   36.7356 H           1 DKZ       0.0584
     30 H11        37.2672   28.9380   35.1995 H           1 DKZ       0.0584
     31 H12        38.9353   30.0017   36.1681 H           1 DKZ       0.2095
     32 H13        37.9672   23.5402   33.2342 H           1 DKZ       0.1288
     33 H14        37.2444   22.9098   31.1356 H           1 DKZ       0.0330
@<TRIPOS>BOND
     1     2     1   1
     2     1     3   1
     3     1    12   1
     4     2    15   1
     5    18     2  am
     6     3     5   1
     7     3     6   1
     8     4    17   1
     9     4    18  am
    10     6     7   1
    11     6     9   1
    12    17     8   2
    13     9    10   1
    14     9    11   1
    15    11    12   1
    16    11    13   1
    17    13    14   1
    18    15    16   2
    19    16    17   1
    20    18    19   2
    21     1    20   1
    22     3    21   1
    23     4    22   1
    24     5    23   1
    25     6    24   1
    26     8    25   1
    27     9    26   1
    28    10    27   1
    29    11    28   1
    30    13    29   1
    31    13    30   1
    32    14    31   1
    33    15    32   1
    34    16    33   1
@<TRIPOS>SUBSTRUCTURE
     1  DKZ      1

