@<TRIPOS>MOLECULE
3l7b_ligand_002
    33    34
SMALL
GAST_HUCK
****
This file was generated by PARSER (from files_GN.cpp)

@<TRIPOS>ATOM
      1 C1         33.5291   23.7427   29.0554 C.3         1 DKZ       0.2111
      2 N1         34.5599   24.2565   29.9778 N.am        1 DKZ      -0.1467
      3 C2         32.2722   24.6754   28.9051 C.3         1 DKZ       0.1450
      4 N2         35.2245   24.9707   32.1052 N.am        1 DKZ      -0.1924
      5 O2         31.5087   24.7625   30.1053 O.3         1 DKZ      -0.3832
      6 C3         31.2948   24.1439   27.8248 C.3         1 DKZ       0.1601
      7 F3         30.2465   25.0222   27.6676 F           1 DKZ      -0.2398
      8 N3         37.3962   25.6907   32.5484 N.2         1 DKZ      -0.4291
      9 C4         32.0076   23.9321   26.4699 C.3         1 DKZ       0.1171
     10 O4         31.0848   23.3638   25.5380 O.3         1 DKZ      -0.3862
     11 C5         33.2431   23.0101   26.6599 C.3         1 DKZ       0.1138
     12 O5         34.0764   23.5003   27.7313 O.3         1 DKZ      -0.3357
     13 C6         34.1459   22.9207   25.4002 C.3         1 DKZ       0.0730
     14 O6         33.4192   22.6913   24.1934 O.3         1 DKZ      -0.3924
     15 C7         35.8461   24.4947   29.5470 C.2         1 DKZ       0.0739
     16 C8         36.8116   24.9555   30.3603 C.2         1 DKZ       0.0019
     17 C9         36.4881   25.2203   31.6777 C.2         1 DKZ       0.0853
     18 C10        34.3018   24.4616   31.2961 C.2         1 DKZ       0.3488
     19 O10        33.2648   24.1606   31.8678 O.2         1 DKZ      -0.3777
     20 H1         33.1929   22.7711   29.4360 H           1 DKZ       0.1013
     21 H2         32.6070   25.6811   28.6350 H           1 DKZ       0.0680
     22 H3         34.9921   25.1399   33.0331 H           1 DKZ       0.2412
     23 H4         31.5303   25.7031   30.3723 H           1 DKZ       0.2101
     24 H5         30.8772   23.1909   28.1609 H           1 DKZ       0.0706
     25 H6         38.3066   25.8615   32.2591 H           1 DKZ       0.0340
     26 H7         32.3295   24.8999   26.0806 H           1 DKZ       0.0650
     27 H8         30.8168   22.5018   25.9205 H           1 DKZ       0.2100
     28 H9         32.9046   22.0013   26.9151 H           1 DKZ       0.0647
     29 H10        34.8460   22.0909   25.5202 H           1 DKZ       0.0584
     30 H11        34.7247   23.8395   25.2828 H           1 DKZ       0.0584
     31 H12        33.1730   23.5898   23.8836 H           1 DKZ       0.2095
     32 H13        36.1186   24.3051   28.6118 H           1 DKZ       0.1288
     33 H14        37.7352   25.0964   30.0271 H           1 DKZ       0.0330
@<TRIPOS>BOND
     1     2     1   1
     2     1     3   1
     3     1    12   1
     4     2    15   1
     5    18     2  am
     6     3     5   1
     7     3     6   1
     8     4    17   1
     9     4    18  am
    10     6     7   1
    11     6     9   1
    12    17     8   2
    13     9    10   1
    14     9    11   1
    15    11    12   1
    16    11    13   1
    17    13    14   1
    18    15    16   2
    19    16    17   1
    20    18    19   2
    21     1    20   1
    22     3    21   1
    23     4    22   1
    24     5    23   1
    25     6    24   1
    26     8    25   1
    27     9    26   1
    28    10    27   1
    29    11    28   1
    30    13    29   1
    31    13    30   1
    32    14    31   1
    33    15    32   1
    34    16    33   1
@<TRIPOS>SUBSTRUCTURE
     1  DKZ      1

