@<TRIPOS>MOLECULE
3lka_ligand_006
    21    21
SMALL
GAST_HUCK
****
This file was generated by PARSER (from files_GN.cpp)

@<TRIPOS>ATOM
      1 C1          1.7471   -2.2439    5.5590 C.ar        1 M4S      -0.0441
      2 N1          2.3145   -5.3504    4.6930 N.am        1 M4S      -0.2621
      3 O1          0.8731    1.3249    5.2317 O.3         1 M4S      -0.3212
      4 S1          0.8768   -4.5496    4.3572 S.o2        1 M4S       0.0609
      5 C2          1.7509   -0.8527    5.7654 C.ar        1 M4S      -0.0313
      6 O2         -0.2253   -5.1966    5.3069 O.2         1 M4S      -0.1519
      7 C3          0.9008   -0.0229    5.0111 C.ar        1 M4S       0.0908
      8 O3          0.4102   -4.9205    2.8853 O.2         1 M4S      -0.1519
      9 C4          0.0216   -0.5996    4.0727 C.ar        1 M4S      -0.0313
     10 C5          0.8887   -2.8271    4.6025 C.ar        1 M4S       0.0967
     11 C6          1.7449    2.0613    4.3570 C.3         1 M4S       0.0594
     12 C7          0.0157   -1.9958    3.8684 C.ar        1 M4S      -0.0441
     13 H1          2.3942   -2.8160    6.1096 H           1 M4S       0.0608
     14 H2          2.4114   -5.8537    5.5173 H           1 M4S       0.1633
     15 H3          3.0624   -5.2814    4.0761 H           1 M4S       0.1633
     16 H4          2.3793   -0.4454    6.4614 H           1 M4S       0.0542
     17 H5         -0.6195   -0.0044    3.5393 H           1 M4S       0.0542
     18 H6          1.6642    3.1210    4.6004 H           1 M4S       0.0577
     19 H7          1.4577    1.9281    3.3106 H           1 M4S       0.0577
     20 H8          2.7878    1.7651    4.4883 H           1 M4S       0.0577
     21 H9         -0.6209   -2.3934    3.1718 H           1 M4S       0.0608
@<TRIPOS>BOND
     1     5     1  ar
     2     1    10  ar
     3     4     2  am
     4     7     3   1
     5     3    11   1
     6     4     6   2
     7     4     8   2
     8    10     4   1
     9     5     7  ar
    10     7     9  ar
    11     9    12  ar
    12    10    12  ar
    13     1    13   1
    14     2    14   1
    15     2    15   1
    16     5    16   1
    17     9    17   1
    18    11    18   1
    19    11    19   1
    20    11    20   1
    21    12    21   1
@<TRIPOS>SUBSTRUCTURE
     1  M4S      1

