@<TRIPOS>MOLECULE
3lka_ligand_016
    21    21
SMALL
GAST_HUCK
****
This file was generated by PARSER (from files_GN.cpp)

@<TRIPOS>ATOM
      1 C1         10.1471   -9.1631    7.5128 C.ar        1 M4S      -0.0441
      2 N1          7.6281   -6.6758    7.7756 N.am        1 M4S      -0.2621
      3 O1         13.8246   -9.5194    7.8257 O.3         1 M4S      -0.3212
      4 S1          8.2465   -7.7681    8.8948 S.o2        1 M4S       0.0609
      5 C2         11.4606   -9.5940    7.2614 C.ar        1 M4S      -0.0313
      6 O2          7.3535   -9.0801    8.7830 O.2         1 M4S      -0.1519
      7 C3         12.5298   -9.1404    8.0635 C.ar        1 M4S       0.0908
      8 O3          8.0016   -7.2355   10.3723 O.2         1 M4S      -0.1519
      9 C4         12.2704   -8.2114    9.0908 C.ar        1 M4S      -0.0313
     10 C5          9.8828   -8.2587    8.5669 C.ar        1 M4S       0.0967
     11 C6         14.0669  -10.9346    7.9313 C.3         1 M4S       0.0594
     12 C7         10.9523   -7.7825    9.3514 C.ar        1 M4S      -0.0441
     13 H1          9.3904   -9.5106    6.9220 H           1 M4S       0.0608
     14 H2          7.0130   -6.9830    7.0902 H           1 M4S       0.1633
     15 H3          7.8898   -5.7387    7.8032 H           1 M4S       0.1633
     16 H4         11.6426  -10.2381    6.4861 H           1 M4S       0.0542
     17 H5         13.0419   -7.8388    9.6548 H           1 M4S       0.0542
     18 H6         15.1360  -11.0979    7.7863 H           1 M4S       0.0577
     19 H7         13.5281  -11.4925    7.1608 H           1 M4S       0.0577
     20 H8         13.7933  -11.3125    8.9204 H           1 M4S       0.0577
     21 H9         10.7859   -7.1116   10.1041 H           1 M4S       0.0608
@<TRIPOS>BOND
     1     5     1  ar
     2     1    10  ar
     3     4     2  am
     4     7     3   1
     5     3    11   1
     6     4     6   2
     7     4     8   2
     8    10     4   1
     9     5     7  ar
    10     7     9  ar
    11     9    12  ar
    12    10    12  ar
    13     1    13   1
    14     2    14   1
    15     2    15   1
    16     5    16   1
    17     9    17   1
    18    11    18   1
    19    11    19   1
    20    11    20   1
    21    12    21   1
@<TRIPOS>SUBSTRUCTURE
     1  M4S      1

