@<TRIPOS>MOLECULE
3lka_ligand_022
    21    21
SMALL
GAST_HUCK
****
This file was generated by PARSER (from files_GN.cpp)

@<TRIPOS>ATOM
      1 C1         10.8324   -9.9273    5.4378 C.ar        1 M4S      -0.0441
      2 N1          9.6833   -7.4247    7.0414 N.am        1 M4S      -0.2621
      3 O1         12.4169  -13.1168    4.4570 O.3         1 M4S      -0.3212
      4 S1          9.8975   -8.9066    7.8030 S.o2        1 M4S       0.0609
      5 C2         11.4381  -10.9205    4.6470 C.ar        1 M4S      -0.0313
      6 O2          8.4437   -9.4173    8.1924 O.2         1 M4S      -0.1519
      7 C3         11.8392  -12.1429    5.2247 C.ar        1 M4S       0.0908
      8 O3         10.6284   -8.6787    9.1972 O.2         1 M4S      -0.1519
      9 C4         11.6473  -12.3536    6.6051 C.ar        1 M4S      -0.0313
     10 C5         10.6373  -10.1371    6.8202 C.ar        1 M4S       0.0967
     11 C6         11.4643  -13.8120    3.6355 C.3         1 M4S       0.0594
     12 C7         11.0447  -11.3578    7.3971 C.ar        1 M4S      -0.0441
     13 H1         10.5417   -9.0532    4.9967 H           1 M4S       0.0608
     14 H2          8.8045   -7.1577    6.7292 H           1 M4S       0.1633
     15 H3         10.4400   -6.8328    6.9207 H           1 M4S       0.1633
     16 H4         11.5736  -10.7605    3.6462 H           1 M4S       0.0542
     17 H5         11.9330  -13.2377    7.0332 H           1 M4S       0.0542
     18 H6         11.9947  -14.5730    3.0618 H           1 M4S       0.0577
     19 H7         10.9762  -13.1376    2.9274 H           1 M4S       0.0577
     20 H8         10.7037  -14.3098    4.2436 H           1 M4S       0.0577
     21 H9         10.9033  -11.5303    8.3956 H           1 M4S       0.0608
@<TRIPOS>BOND
     1     5     1  ar
     2     1    10  ar
     3     4     2  am
     4     7     3   1
     5     3    11   1
     6     4     6   2
     7     4     8   2
     8    10     4   1
     9     5     7  ar
    10     7     9  ar
    11     9    12  ar
    12    10    12  ar
    13     1    13   1
    14     2    14   1
    15     2    15   1
    16     5    16   1
    17     9    17   1
    18    11    18   1
    19    11    19   1
    20    11    20   1
    21    12    21   1
@<TRIPOS>SUBSTRUCTURE
     1  M4S      1

