@<TRIPOS>MOLECULE
3lka_ligand_005
    21    21
SMALL
GAST_HUCK
****
This file was generated by PARSER (from files_GN.cpp)

@<TRIPOS>ATOM
      1 C1          2.9612   -5.1347    7.5834 C.ar        1 M4S      -0.0441
      2 N1          7.0091   -6.0798    7.4221 N.am        1 M4S      -0.2621
      3 O1          1.3192   -3.3822    4.7653 O.3         1 M4S      -0.3212
      4 S1          5.4208   -6.3187    7.9130 S.o2        1 M4S       0.0609
      5 C2          1.9878   -4.4478    6.8341 C.ar        1 M4S      -0.0313
      6 O2          5.3441   -5.9131    9.4505 O.2         1 M4S      -0.1519
      7 C3          2.2409   -4.0817    5.4964 C.ar        1 M4S       0.0908
      8 O3          5.1211   -7.8819    7.9035 O.2         1 M4S      -0.1519
      9 C4          3.4930   -4.3936    4.9189 C.ar        1 M4S      -0.0313
     10 C5          4.2079   -5.4530    7.0057 C.ar        1 M4S       0.0967
     11 C6          0.2308   -4.1802    4.2699 C.3         1 M4S       0.0594
     12 C7          4.4657   -5.0767    5.6696 C.ar        1 M4S      -0.0441
     13 H1          2.7480   -5.4048    8.5482 H           1 M4S       0.0608
     14 H2          7.5832   -5.4721    7.9176 H           1 M4S       0.1633
     15 H3          7.2924   -6.3850    6.5445 H           1 M4S       0.1633
     16 H4          1.0880   -4.2113    7.2655 H           1 M4S       0.0542
     17 H5          3.6922   -4.1175    3.9594 H           1 M4S       0.0542
     18 H6         -0.4129   -3.5423    3.6649 H           1 M4S       0.0577
     19 H7         -0.3700   -4.5846    5.0858 H           1 M4S       0.0577
     20 H8          0.5930   -4.9968    3.6416 H           1 M4S       0.0577
     21 H9          5.3631   -5.2969    5.2325 H           1 M4S       0.0608
@<TRIPOS>BOND
     1     5     1  ar
     2     1    10  ar
     3     4     2  am
     4     7     3   1
     5     3    11   1
     6     4     6   2
     7     4     8   2
     8    10     4   1
     9     5     7  ar
    10     7     9  ar
    11     9    12  ar
    12    10    12  ar
    13     1    13   1
    14     2    14   1
    15     2    15   1
    16     5    16   1
    17     9    17   1
    18    11    18   1
    19    11    19   1
    20    11    20   1
    21    12    21   1
@<TRIPOS>SUBSTRUCTURE
     1  M4S      1

