@<TRIPOS>MOLECULE
3lka_ligand_013
    21    21
SMALL
GAST_HUCK
****
This file was generated by PARSER (from files_GN.cpp)

@<TRIPOS>ATOM
      1 C1         -0.0394    2.0564    3.5996 C.ar        1 M4S      -0.0441
      2 N1          0.6523   -0.5559    5.7362 N.am        1 M4S      -0.2621
      3 O1          0.9859    5.4704    2.6269 O.3         1 M4S      -0.3212
      4 S1          1.2928   -0.2439    4.2174 S.o2        1 M4S       0.0609
      5 C2         -0.1166    3.4072    3.2150 C.ar        1 M4S      -0.0313
      6 O2          0.4205   -1.0837    3.1847 O.2         1 M4S      -0.1519
      7 C3          1.0613    4.1582    3.0140 C.ar        1 M4S       0.0908
      8 O3          2.7466   -0.8772    4.1871 O.2         1 M4S      -0.1519
      9 C4          2.3175    3.5305    3.1589 C.ar        1 M4S      -0.0313
     10 C5          1.2163    1.4319    3.7519 C.ar        1 M4S       0.0967
     11 C6          0.9301    6.3869    3.7304 C.3         1 M4S       0.0594
     12 C7          2.3967    2.1760    3.5405 C.ar        1 M4S      -0.0441
     13 H1         -0.9061    1.5293    3.7421 H           1 M4S       0.0608
     14 H2          0.0115   -1.2813    5.8257 H           1 M4S       0.1633
     15 H3          1.1022   -0.2116    6.5324 H           1 M4S       0.1633
     16 H4         -1.0302    3.8434    3.0886 H           1 M4S       0.0542
     17 H5          3.1799    4.0585    2.9926 H           1 M4S       0.0542
     18 H6          0.8553    7.3936    3.3188 H           1 M4S       0.0577
     19 H7          1.8363    6.3287    4.3422 H           1 M4S       0.0577
     20 H8          0.0495    6.2056    4.3589 H           1 M4S       0.0577
     21 H9          3.3167    1.7377    3.6414 H           1 M4S       0.0608
@<TRIPOS>BOND
     1     5     1  ar
     2     1    10  ar
     3     4     2  am
     4     7     3   1
     5     3    11   1
     6     4     6   2
     7     4     8   2
     8    10     4   1
     9     5     7  ar
    10     7     9  ar
    11     9    12  ar
    12    10    12  ar
    13     1    13   1
    14     2    14   1
    15     2    15   1
    16     5    16   1
    17     9    17   1
    18    11    18   1
    19    11    19   1
    20    11    20   1
    21    12    21   1
@<TRIPOS>SUBSTRUCTURE
     1  M4S      1

