@<TRIPOS>MOLECULE
3lka_ligand_003
    21    21
SMALL
GAST_HUCK
****
This file was generated by PARSER (from files_GN.cpp)

@<TRIPOS>ATOM
      1 C1          6.2344   -7.4979    9.6763 C.ar        1 M4S      -0.0441
      2 N1          9.4732   -7.2027    7.0096 N.am        1 M4S      -0.2621
      3 O1          3.1212   -5.5979    9.0828 O.3         1 M4S      -0.3212
      4 S1          8.5880   -7.7995    8.3080 S.o2        1 M4S       0.0609
      5 C2          4.9360   -6.9887    9.8575 C.ar        1 M4S      -0.0313
      6 O2          9.4391   -7.5117    9.6200 O.2         1 M4S      -0.1519
      7 C3          4.3717   -6.1211    8.9010 C.ar        1 M4S       0.0908
      8 O3          8.5451   -9.3869    8.2300 O.2         1 M4S      -0.1519
      9 C4          5.1282   -5.7536    7.7702 C.ar        1 M4S      -0.0313
     10 C5          6.9912   -7.1363    8.5419 C.ar        1 M4S       0.0967
     11 C6          2.0688   -6.5065    8.7067 C.3         1 M4S       0.0594
     12 C7          6.4290   -6.2605    7.5887 C.ar        1 M4S      -0.0441
     13 H1          6.6227   -8.1316   10.3796 H           1 M4S       0.0608
     14 H2         10.2570   -6.6507    7.1660 H           1 M4S       0.1633
     15 H3          9.2276   -7.4484    6.1023 H           1 M4S       0.1633
     16 H4          4.3938   -7.2593   10.6814 H           1 M4S       0.0542
     17 H5          4.7304   -5.1185    7.0738 H           1 M4S       0.0542
     18 H6          1.1188   -5.9874    8.8240 H           1 M4S       0.0577
     19 H7          2.0560   -7.3886    9.3518 H           1 M4S       0.0577
     20 H8          2.1535   -6.8195    7.6636 H           1 M4S       0.0577
     21 H9          6.9579   -5.9842    6.7584 H           1 M4S       0.0608
@<TRIPOS>BOND
     1     5     1  ar
     2     1    10  ar
     3     4     2  am
     4     7     3   1
     5     3    11   1
     6     4     6   2
     7     4     8   2
     8    10     4   1
     9     5     7  ar
    10     7     9  ar
    11     9    12  ar
    12    10    12  ar
    13     1    13   1
    14     2    14   1
    15     2    15   1
    16     5    16   1
    17     9    17   1
    18    11    18   1
    19    11    19   1
    20    11    20   1
    21    12    21   1
@<TRIPOS>SUBSTRUCTURE
     1  M4S      1

