@<TRIPOS>MOLECULE
3lka_ligand_009
    21    21
SMALL
GAST_HUCK
****
This file was generated by PARSER (from files_GN.cpp)

@<TRIPOS>ATOM
      1 C1         12.3984   -9.2519    8.1525 C.ar        1 M4S      -0.0441
      2 N1          9.7695   -7.2040    6.9255 N.am        1 M4S      -0.2621
      3 O1         14.0705  -12.4373    7.2665 O.3         1 M4S      -0.3212
      4 S1          9.8007   -8.3859    8.1199 S.o2        1 M4S       0.0609
      5 C2         13.4093  -10.2179    7.9774 C.ar        1 M4S      -0.0313
      6 O2          8.3798   -9.0989    8.1913 O.2         1 M4S      -0.1519
      7 C3         13.0962  -11.4917    7.4576 C.ar        1 M4S       0.0908
      8 O3          9.9602   -7.6345    9.5127 O.2         1 M4S      -0.1519
      9 C4         11.7481  -11.8148    7.1962 C.ar        1 M4S      -0.0313
     10 C5         11.0535   -9.5718    7.8715 C.ar        1 M4S       0.0967
     11 C6         14.8884  -12.2128    6.1019 C.3         1 M4S       0.0594
     12 C7         10.7346  -10.8571    7.3864 C.ar        1 M4S      -0.0441
     13 H1         12.6411   -8.3242    8.5059 H           1 M4S       0.0608
     14 H2          9.0620   -7.1853    6.2639 H           1 M4S       0.1633
     15 H3         10.4718   -6.5349    6.8979 H           1 M4S       0.1633
     16 H4         14.3767   -9.9921    8.2208 H           1 M4S       0.0542
     17 H5         11.5015  -12.7462    6.8605 H           1 M4S       0.0542
     18 H6         15.5900  -13.0422    6.0167 H           1 M4S       0.0577
     19 H7         15.4628  -11.2890    6.1908 H           1 M4S       0.0577
     20 H8         14.2986  -12.1837    5.1833 H           1 M4S       0.0577
     21 H9          9.7654  -11.1046    7.1744 H           1 M4S       0.0608
@<TRIPOS>BOND
     1     5     1  ar
     2     1    10  ar
     3     4     2  am
     4     7     3   1
     5     3    11   1
     6     4     6   2
     7     4     8   2
     8    10     4   1
     9     5     7  ar
    10     7     9  ar
    11     9    12  ar
    12    10    12  ar
    13     1    13   1
    14     2    14   1
    15     2    15   1
    16     5    16   1
    17     9    17   1
    18    11    18   1
    19    11    19   1
    20    11    20   1
    21    12    21   1
@<TRIPOS>SUBSTRUCTURE
     1  M4S      1

