@<TRIPOS>MOLECULE
3lka_ligand_011
    21    21
SMALL
GAST_HUCK
****
This file was generated by PARSER (from files_GN.cpp)

@<TRIPOS>ATOM
      1 C1          1.6918   -2.1316    5.6477 C.ar        1 M4S      -0.0441
      2 N1          0.0159    0.5512    2.8718 N.am        1 M4S      -0.2621
      3 O1          0.5969   -5.6657    5.7256 O.3         1 M4S      -0.3212
      4 S1          1.0181    0.0394    4.1207 S.o2        1 M4S       0.0609
      5 C2          1.6102   -3.4867    6.0242 C.ar        1 M4S      -0.0313
      6 O2          0.7325    0.9909    5.3649 O.2         1 M4S      -0.1519
      7 C3          0.7399   -4.3601    5.3423 C.ar        1 M4S       0.0908
      8 O3          2.5152    0.3951    3.7154 O.2         1 M4S      -0.1519
      9 C4         -0.0569   -3.8633    4.2929 C.ar        1 M4S      -0.0313
     10 C5          0.8983   -1.6343    4.5920 C.ar        1 M4S       0.0967
     11 C6          1.6865   -6.5183    5.3375 C.3         1 M4S       0.0594
     12 C7          0.0291   -2.5118    3.9123 C.ar        1 M4S      -0.0441
     13 H1          2.3253   -1.5086    6.1537 H           1 M4S       0.0608
     14 H2         -0.8268    0.9913    3.0728 H           1 M4S       0.1633
     15 H3          0.2761    0.3979    1.9467 H           1 M4S       0.1633
     16 H4          2.1773   -3.8364    6.7971 H           1 M4S       0.0542
     17 H5         -0.7002   -4.4924    3.8018 H           1 M4S       0.0542
     18 H6          1.4432   -7.5374    5.6360 H           1 M4S       0.0577
     19 H7          2.6164   -6.2268    5.8437 H           1 M4S       0.0577
     20 H8          1.8414   -6.5017    4.2543 H           1 M4S       0.0577
     21 H9         -0.5563   -2.1705    3.1462 H           1 M4S       0.0608
@<TRIPOS>BOND
     1     5     1  ar
     2     1    10  ar
     3     4     2  am
     4     7     3   1
     5     3    11   1
     6     4     6   2
     7     4     8   2
     8    10     4   1
     9     5     7  ar
    10     7     9  ar
    11     9    12  ar
    12    10    12  ar
    13     1    13   1
    14     2    14   1
    15     2    15   1
    16     5    16   1
    17     9    17   1
    18    11    18   1
    19    11    19   1
    20    11    20   1
    21    12    21   1
@<TRIPOS>SUBSTRUCTURE
     1  M4S      1

