@<TRIPOS>MOLECULE
3lka_ligand_015
    21    21
SMALL
GAST_HUCK
****
This file was generated by PARSER (from files_GN.cpp)

@<TRIPOS>ATOM
      1 C1         -1.0584    0.9535    3.3552 C.ar        1 M4S      -0.0441
      2 N1          2.2644    1.4735    3.0002 N.am        1 M4S      -0.2621
      3 O1         -3.9606   -1.2175    2.5867 O.3         1 M4S      -0.3212
      4 S1          1.5073    0.5074    4.1479 S.o2        1 M4S       0.0609
      5 C2         -2.3571    0.5575    2.9868 C.ar        1 M4S      -0.0313
      6 O2          1.3226    1.4052    5.4482 O.2         1 M4S      -0.1519
      7 C3         -2.6998   -0.8109    2.9416 C.ar        1 M4S       0.0908
      8 O3          2.4917   -0.6703    4.5626 O.2         1 M4S      -0.1519
      9 C4         -1.7069   -1.7766    3.2053 C.ar        1 M4S      -0.0313
     10 C5         -0.0777   -0.0146    3.6560 C.ar        1 M4S       0.0967
     11 C6         -4.9442   -1.0864    3.6319 C.3         1 M4S       0.0594
     12 C7         -0.4073   -1.3845    3.5783 C.ar        1 M4S      -0.0441
     13 H1         -0.8357    1.9509    3.4103 H           1 M4S       0.0608
     14 H2          2.3624    2.4269    3.1497 H           1 M4S       0.1633
     15 H3          2.6628    1.0628    2.2172 H           1 M4S       0.1633
     16 H4         -3.0533    1.2680    2.7555 H           1 M4S       0.0542
     17 H5         -1.9281   -2.7697    3.1222 H           1 M4S       0.0542
     18 H6         -5.8945   -1.4595    3.2499 H           1 M4S       0.0577
     19 H7         -5.0798   -0.0406    3.9175 H           1 M4S       0.0577
     20 H8         -4.6845   -1.6747    4.5162 H           1 M4S       0.0577
     21 H9          0.2916   -2.1020    3.7872 H           1 M4S       0.0608
@<TRIPOS>BOND
     1     5     1  ar
     2     1    10  ar
     3     4     2  am
     4     7     3   1
     5     3    11   1
     6     4     6   2
     7     4     8   2
     8    10     4   1
     9     5     7  ar
    10     7     9  ar
    11     9    12  ar
    12    10    12  ar
    13     1    13   1
    14     2    14   1
    15     2    15   1
    16     5    16   1
    17     9    17   1
    18    11    18   1
    19    11    19   1
    20    11    20   1
    21    12    21   1
@<TRIPOS>SUBSTRUCTURE
     1  M4S      1

