@<TRIPOS>MOLECULE
3lka_ligand_017
    21    21
SMALL
GAST_HUCK
****
This file was generated by PARSER (from files_GN.cpp)

@<TRIPOS>ATOM
      1 C1          6.3591   -7.4362    7.7280 C.ar        1 M4S      -0.0441
      2 N1          8.1096   -7.4307   11.1035 N.am        1 M4S      -0.2621
      3 O1          4.2160   -4.8847    6.1373 O.3         1 M4S      -0.3212
      4 S1          6.8264   -8.1871   10.3261 S.o2        1 M4S       0.0609
      5 C2          5.7351   -6.6535    6.7385 C.ar        1 M4S      -0.0313
      6 O2          5.7441   -8.4696   11.4547 O.2         1 M4S      -0.1519
      7 C3          4.8034   -5.6590    7.1002 C.ar        1 M4S       0.0908
      8 O3          7.2849   -9.6307    9.8364 O.2         1 M4S      -0.1519
      9 C4          4.5249   -5.4327    8.4636 C.ar        1 M4S      -0.0313
     10 C5          6.0670   -7.2209    9.0930 C.ar        1 M4S       0.0967
     11 C6          2.9757   -5.4286    5.6534 C.3         1 M4S       0.0594
     12 C7          5.1491   -6.2139    9.4537 C.ar        1 M4S      -0.0441
     13 H1          7.0247   -8.1598    7.4457 H           1 M4S       0.0608
     14 H2          7.9945   -7.0860   12.0032 H           1 M4S       0.1633
     15 H3          8.9767   -7.3779   10.6712 H           1 M4S       0.1633
     16 H4          5.9548   -6.8134    5.7525 H           1 M4S       0.0542
     17 H5          3.8623   -4.7032    8.7358 H           1 M4S       0.0542
     18 H6          2.5855   -4.7570    4.8884 H           1 M4S       0.0577
     19 H7          2.2348   -5.5012    6.4538 H           1 M4S       0.0577
     20 H8          3.1210   -6.4127    5.1998 H           1 M4S       0.0577
     21 H9          4.9280   -6.0441   10.4377 H           1 M4S       0.0608
@<TRIPOS>BOND
     1     5     1  ar
     2     1    10  ar
     3     4     2  am
     4     7     3   1
     5     3    11   1
     6     4     6   2
     7     4     8   2
     8    10     4   1
     9     5     7  ar
    10     7     9  ar
    11     9    12  ar
    12    10    12  ar
    13     1    13   1
    14     2    14   1
    15     2    15   1
    16     5    16   1
    17     9    17   1
    18    11    18   1
    19    11    19   1
    20    11    20   1
    21    12    21   1
@<TRIPOS>SUBSTRUCTURE
     1  M4S      1

