@<TRIPOS>MOLECULE
3lka_ligand_002
    21    21
SMALL
GAST_HUCK
****
This file was generated by PARSER (from files_GN.cpp)

@<TRIPOS>ATOM
      1 C1          6.2928   -6.2431    7.8548 C.ar        1 M4S      -0.0441
      2 N1          3.4322   -4.3475    9.5599 N.am        1 M4S      -0.2621
      3 O1          9.6154   -7.0981    9.3040 O.3         1 M4S      -0.3212
      4 S1          3.8030   -5.8714    8.9572 S.o2        1 M4S       0.0609
      5 C2          7.6714   -6.5434    7.9228 C.ar        1 M4S      -0.0313
      6 O2          3.2836   -5.8893    7.4523 O.2         1 M4S      -0.1519
      7 C3          8.2756   -6.8528    9.1592 C.ar        1 M4S       0.0908
      8 O3          2.9251   -6.9671    9.7061 O.2         1 M4S      -0.1519
      9 C4          7.4903   -6.8186   10.3259 C.ar        1 M4S      -0.0313
     10 C5          5.5036   -6.2342    9.0256 C.ar        1 M4S       0.0967
     11 C6         10.2498   -7.9412    8.3310 C.3         1 M4S       0.0594
     12 C7          6.1162   -6.5172   10.2632 C.ar        1 M4S      -0.0441
     13 H1          5.8738   -6.0234    6.9464 H           1 M4S       0.0608
     14 H2          3.0823   -3.6622    8.9702 H           1 M4S       0.1633
     15 H3          3.5498   -4.1569   10.5029 H           1 M4S       0.1633
     16 H4          8.2338   -6.5201    7.0722 H           1 M4S       0.0542
     17 H5          7.9231   -7.0068   11.2355 H           1 M4S       0.0542
     18 H6         11.2626   -8.1568    8.6879 H           1 M4S       0.0577
     19 H7         10.3305   -7.4296    7.3710 H           1 M4S       0.0577
     20 H8          9.7274   -8.8927    8.1988 H           1 M4S       0.0577
     21 H9          5.5688   -6.5047   11.1309 H           1 M4S       0.0608
@<TRIPOS>BOND
     1     5     1  ar
     2     1    10  ar
     3     4     2  am
     4     7     3   1
     5     3    11   1
     6     4     6   2
     7     4     8   2
     8    10     4   1
     9     5     7  ar
    10     7     9  ar
    11     9    12  ar
    12    10    12  ar
    13     1    13   1
    14     2    14   1
    15     2    15   1
    16     5    16   1
    17     9    17   1
    18    11    18   1
    19    11    19   1
    20    11    20   1
    21    12    21   1
@<TRIPOS>SUBSTRUCTURE
     1  M4S      1

