@<TRIPOS>MOLECULE
3lka_ligand_001
    21    21
SMALL
GAST_HUCK
****
This file was generated by PARSER (from files_GN.cpp)

@<TRIPOS>ATOM
      1 C1          4.4622   -6.7847    6.4132 C.ar        1 M4S      -0.0441
      2 N1          7.3988   -6.3930    7.6520 N.am        1 M4S      -0.2621
      3 O1          0.8550   -6.0218    6.1300 O.3         1 M4S      -0.3212
      4 S1          6.1830   -7.1960    8.4873 S.o2        1 M4S       0.0609
      5 C2          3.2147   -6.4890    5.8457 C.ar        1 M4S      -0.0313
      6 O2          6.2320   -6.6587    9.9875 O.2         1 M4S      -0.1519
      7 C3          2.0842   -6.3010    6.6648 C.ar        1 M4S       0.0908
      8 O3          6.5424   -8.7442    8.5678 O.2         1 M4S      -0.1519
      9 C4          2.2133   -6.4319    8.0623 C.ar        1 M4S      -0.0313
     10 C5          4.6037   -6.8975    7.8111 C.ar        1 M4S       0.0967
     11 C6          0.7194   -4.6573    5.6871 C.3         1 M4S       0.0594
     12 C7          3.4672   -6.7237    8.6361 C.ar        1 M4S      -0.0441
     13 H1          5.2755   -6.8957    5.8037 H           1 M4S       0.0608
     14 H2          7.7611   -5.5699    8.0169 H           1 M4S       0.1633
     15 H3          7.5046   -6.5532    6.7010 H           1 M4S       0.1633
     16 H4          3.1263   -6.3881    4.8332 H           1 M4S       0.0542
     17 H5          1.3960   -6.3025    8.6675 H           1 M4S       0.0542
     18 H6         -0.3103   -4.5106    5.3734 H           1 M4S       0.0577
     19 H7          1.3755   -4.4535    4.8372 H           1 M4S       0.0577
     20 H8          0.9337   -3.9533    6.4976 H           1 M4S       0.0577
     21 H9          3.5440   -6.7838    9.6575 H           1 M4S       0.0608
@<TRIPOS>BOND
     1     5     1  ar
     2     1    10  ar
     3     4     2  am
     4     7     3   1
     5     3    11   1
     6     4     6   2
     7     4     8   2
     8    10     4   1
     9     5     7  ar
    10     7     9  ar
    11     9    12  ar
    12    10    12  ar
    13     1    13   1
    14     2    14   1
    15     2    15   1
    16     5    16   1
    17     9    17   1
    18    11    18   1
    19    11    19   1
    20    11    20   1
    21    12    21   1
@<TRIPOS>SUBSTRUCTURE
     1  M4S      1

