@<TRIPOS>MOLECULE
3lka_ligand_024
    21    21
SMALL
GAST_HUCK
****
This file was generated by PARSER (from files_GN.cpp)

@<TRIPOS>ATOM
      1 C1          1.6414   -3.5137    6.1234 C.ar        1 M4S      -0.0441
      2 N1          1.4789   -0.0331    5.6598 N.am        1 M4S      -0.2621
      3 O1          3.8983   -6.3992    5.7295 O.3         1 M4S      -0.3212
      4 S1          1.0738   -1.2927    4.6223 S.o2        1 M4S       0.0609
      5 C2          2.3128   -4.7212    6.3880 C.ar        1 M4S      -0.0313
      6 O2          1.3980   -0.7626    3.1580 O.2         1 M4S      -0.1519
      7 C3          3.2466   -5.2277    5.4634 C.ar        1 M4S       0.0908
      8 O3         -0.5056   -1.4743    4.6163 O.2         1 M4S      -0.1519
      9 C4          3.4757   -4.5340    4.2576 C.ar        1 M4S      -0.0313
     10 C5          1.8903   -2.8008    4.9304 C.ar        1 M4S       0.0967
     11 C6          5.2320   -6.1884    6.2216 C.3         1 M4S       0.0594
     12 C7          2.8058   -3.3287    3.9959 C.ar        1 M4S      -0.0441
     13 H1          0.9753   -3.1574    6.8117 H           1 M4S       0.0608
     14 H2          2.0576    0.6777    5.3445 H           1 M4S       0.1633
     15 H3          1.1571   -0.0217    6.5767 H           1 M4S       0.1633
     16 H4          2.1317   -5.2249    7.2597 H           1 M4S       0.0542
     17 H5          4.1455   -4.8941    3.5742 H           1 M4S       0.0542
     18 H6          5.6948   -7.1616    6.3855 H           1 M4S       0.0577
     19 H7          5.2192   -5.6443    7.1700 H           1 M4S       0.0577
     20 H8          5.8432   -5.6409    5.4992 H           1 M4S       0.0577
     21 H9          3.0019   -2.8397    3.1215 H           1 M4S       0.0608
@<TRIPOS>BOND
     1     5     1  ar
     2     1    10  ar
     3     4     2  am
     4     7     3   1
     5     3    11   1
     6     4     6   2
     7     4     8   2
     8    10     4   1
     9     5     7  ar
    10     7     9  ar
    11     9    12  ar
    12    10    12  ar
    13     1    13   1
    14     2    14   1
    15     2    15   1
    16     5    16   1
    17     9    17   1
    18    11    18   1
    19    11    19   1
    20    11    20   1
    21    12    21   1
@<TRIPOS>SUBSTRUCTURE
     1  M4S      1

