@<TRIPOS>MOLECULE
3lka_ligand_008
    21    21
SMALL
GAST_HUCK
****
This file was generated by PARSER (from files_GN.cpp)

@<TRIPOS>ATOM
      1 C1          9.4714   -8.0779   11.1867 C.ar        1 M4S      -0.0441
      2 N1          7.6800   -6.5276    7.7672 N.am        1 M4S      -0.2621
      3 O1         13.1421   -8.3163   11.5173 O.3         1 M4S      -0.3212
      4 S1          7.7637   -7.5638    9.0912 S.o2        1 M4S       0.0609
      5 C2         10.7493   -8.2700   11.7483 C.ar        1 M4S      -0.0313
      6 O2          7.3170   -9.0054    8.5876 O.2         1 M4S      -0.1519
      7 C3         11.9048   -8.1578   10.9489 C.ar        1 M4S       0.0908
      8 O3          6.6546   -7.1384   10.1489 O.2         1 M4S      -0.1519
      9 C4         11.7680   -7.8179    9.5868 C.ar        1 M4S      -0.0313
     10 C5          9.3365   -7.7644    9.8158 C.ar        1 M4S       0.0967
     11 C6         13.8685   -9.4709   11.0554 C.3         1 M4S       0.0594
     12 C7         10.4930   -7.6441    9.0192 C.ar        1 M4S      -0.0441
     13 H1          8.6463   -8.1751   11.7845 H           1 M4S       0.0608
     14 H2          7.6942   -6.8850    6.8651 H           1 M4S       0.1633
     15 H3          7.8377   -5.5772    7.8901 H           1 M4S       0.1633
     16 H4         10.8382   -8.4937   12.7420 H           1 M4S       0.0542
     17 H5         12.5975   -7.7034    9.0013 H           1 M4S       0.0542
     18 H6         14.8200   -9.5126   11.5868 H           1 M4S       0.0577
     19 H7         14.0842   -9.4049    9.9861 H           1 M4S       0.0577
     20 H8         13.3214  -10.3946   11.2601 H           1 M4S       0.0577
     21 H9         10.4163   -7.4271    8.0231 H           1 M4S       0.0608
@<TRIPOS>BOND
     1     5     1  ar
     2     1    10  ar
     3     4     2  am
     4     7     3   1
     5     3    11   1
     6     4     6   2
     7     4     8   2
     8    10     4   1
     9     5     7  ar
    10     7     9  ar
    11     9    12  ar
    12    10    12  ar
    13     1    13   1
    14     2    14   1
    15     2    15   1
    16     5    16   1
    17     9    17   1
    18    11    18   1
    19    11    19   1
    20    11    20   1
    21    12    21   1
@<TRIPOS>SUBSTRUCTURE
     1  M4S      1

