@<TRIPOS>MOLECULE
3mfv_ligand_008
    25    25
SMALL
GAST_HUCK
****
This file was generated by PARSER (from files_GN.cpp)

@<TRIPOS>ATOM
      1 CA        -20.3502   14.9627   -3.3899 C.3         1 Z70       0.0300
      2 C         -19.0543   14.3725   -2.9850 C.2         1 Z70       0.0846
      3 C3        -20.7554   16.7157   -6.1646 C.2         1 Z70       0.0382
      4 C4        -20.4028   15.6760   -8.0431 C.2         1 Z70       0.1941
      5 C5        -20.0246   17.5340   -7.0202 C.2         1 Z70      -0.0516
      6 C6        -20.2086   16.4828   -3.7073 C.3         1 Z70       0.0122
      7 C7        -21.1881   17.0238   -4.7859 C.3         1 Z70       0.0023
      8 N         -21.3647   14.7109   -2.3464 N.4         1 Z70       0.2328
      9 N2        -20.9729   15.5757   -6.8330 N.pl3       1 Z70      -0.2452
     10 N3        -19.8173   16.8785   -8.1715 N.2         1 Z70      -0.3473
     11 N4        -20.4261   14.7233   -8.9896 N.pl3       1 Z70      -0.3004
     12 OXT       -18.8523   13.8657   -1.7446 O.co2       1 Z70      -0.5643
     13 O         -18.0404   14.3404   -3.8798 O.co2       1 Z70      -0.5643
     14 H1        -20.6816   14.4302   -4.2846 H           1 Z70       0.1026
     15 H2        -19.6884   18.4749   -6.8124 H           1 Z70       0.0251
     16 H3        -19.1888   16.7103   -4.0343 H           1 Z70       0.0359
     17 H4        -20.3666   17.0327   -2.7761 H           1 Z70       0.0359
     18 H5        -22.1894   16.6220   -4.6160 H           1 Z70       0.0424
     19 H6        -21.2470   18.1086   -4.6783 H           1 Z70       0.0424
     20 H7        -21.4689   13.6976   -2.2181 H           1 Z70       0.2010
     21 H8        -22.2619   15.1132   -2.6226 H           1 Z70       0.2010
     22 H9        -21.0711   15.1303   -1.4588 H           1 Z70       0.2010
     23 H10       -21.4496   14.8018   -6.4926 H           1 Z70       0.2341
     24 H11       -19.9955   14.8778   -9.8468 H           1 Z70       0.1788
     25 H12       -20.8815   13.8823   -8.8197 H           1 Z70       0.1788
@<TRIPOS>BOND
     1     1     2   1
     2     6     1   1
     3     1     8   1
     4     2    12  ar
     5     2    13  ar
     6     3     5   2
     7     7     3   1
     8     3     9   1
     9     9     4   1
    10     4    10   2
    11     4    11   1
    12     5    10   1
    13     6     7   1
    14     1    14   1
    15     5    15   1
    16     6    16   1
    17     6    17   1
    18     7    18   1
    19     7    19   1
    20     8    20   1
    21     8    21   1
    22     8    22   1
    23     9    23   1
    24    11    24   1
    25    11    25   1
@<TRIPOS>SUBSTRUCTURE
     1  Z70      1

