@<TRIPOS>MOLECULE
3mfv_ligand_012
    25    25
SMALL
GAST_HUCK
****
This file was generated by PARSER (from files_GN.cpp)

@<TRIPOS>ATOM
      1 CA        -22.1988   15.6015   -6.0149 C.3         1 Z70       0.0300
      2 C         -22.2676   16.4890   -4.8314 C.2         1 Z70       0.0846
      3 C3        -18.7708   15.1824   -5.6061 C.2         1 Z70       0.0382
      4 C4        -17.8559   15.6715   -3.6873 C.2         1 Z70       0.1941
      5 C5        -17.3818   15.0999   -5.7055 C.2         1 Z70      -0.0516
      6 C6        -20.9180   15.8274   -6.8890 C.3         1 Z70       0.0122
      7 C7        -19.7475   14.8217   -6.6515 C.3         1 Z70       0.0023
      8 N         -23.4184   15.7753   -6.8295 N.4         1 Z70       0.2328
      9 N2        -19.0232   15.5338   -4.3381 N.pl3       1 Z70      -0.2452
     10 N3        -16.8324   15.4025   -4.5179 N.2         1 Z70      -0.3473
     11 N4        -17.7195   16.0032   -2.3907 N.pl3       1 Z70      -0.3004
     12 OXT       -21.8731   16.0288   -3.6163 O.co2       1 Z70      -0.5643
     13 O         -22.9827   17.6470   -4.8608 O.co2       1 Z70      -0.5643
     14 H1        -22.2233   14.5662   -5.6786 H           1 Z70       0.1026
     15 H2        -16.8572   14.8313   -6.5372 H           1 Z70       0.0251
     16 H3        -20.5538   16.8562   -6.7914 H           1 Z70       0.0359
     17 H4        -21.2048   15.7096   -7.9429 H           1 Z70       0.0359
     18 H5        -20.1527   13.8293   -6.4203 H           1 Z70       0.0424
     19 H6        -19.2033   14.7191   -7.6001 H           1 Z70       0.0424
     20 H7        -24.2506   15.5479   -6.2790 H           1 Z70       0.2010
     21 H8        -23.3718   15.1466   -7.6352 H           1 Z70       0.2010
     22 H9        -23.4877   16.7471   -7.1560 H           1 Z70       0.2010
     23 H10       -19.9048   15.6511   -3.9359 H           1 Z70       0.2341
     24 H11       -16.8393   16.0041   -1.9868 H           1 Z70       0.1788
     25 H12       -18.4941   16.2379   -1.8466 H           1 Z70       0.1788
@<TRIPOS>BOND
     1     1     2   1
     2     6     1   1
     3     1     8   1
     4     2    12  ar
     5     2    13  ar
     6     3     5   2
     7     7     3   1
     8     3     9   1
     9     9     4   1
    10     4    10   2
    11     4    11   1
    12     5    10   1
    13     6     7   1
    14     1    14   1
    15     5    15   1
    16     6    16   1
    17     6    17   1
    18     7    18   1
    19     7    19   1
    20     8    20   1
    21     8    21   1
    22     8    22   1
    23     9    23   1
    24    11    24   1
    25    11    25   1
@<TRIPOS>SUBSTRUCTURE
     1  Z70      1

