@<TRIPOS>MOLECULE
3mfv_ligand_022
    25    25
SMALL
GAST_HUCK
****
This file was generated by PARSER (from files_GN.cpp)

@<TRIPOS>ATOM
      1 CA        -18.1788   15.3224   -7.9388 C.3         1 Z70       0.0300
      2 C         -17.0847   16.1691   -7.4168 C.2         1 Z70       0.0846
      3 C3        -19.5486   11.8517   -6.7754 C.2         1 Z70       0.0382
      4 C4        -19.5534    9.6909   -6.5376 C.2         1 Z70       0.1941
      5 C5        -19.4117   11.5324   -5.4227 C.2         1 Z70      -0.0516
      6 C6        -18.2278   13.9554   -7.1978 C.3         1 Z70       0.0122
      7 C7        -19.5673   13.1936   -7.3816 C.3         1 Z70       0.0023
      8 N         -18.0408   15.1159   -9.3933 N.4         1 Z70       0.2328
      9 N2        -19.6370   10.6865   -7.4304 N.pl3       1 Z70      -0.2452
     10 N3        -19.3953   10.1956   -5.3017 N.2         1 Z70      -0.3473
     11 N4        -19.6002    8.3840   -6.8467 N.pl3       1 Z70      -0.3004
     12 OXT       -16.1986   16.7824   -8.2503 O.co2       1 Z70      -0.5643
     13 O         -17.1260   16.5886   -6.1343 O.co2       1 Z70      -0.5643
     14 H1        -19.1194   15.8524   -7.7704 H           1 Z70       0.1026
     15 H2        -19.3248   12.1973   -4.6596 H           1 Z70       0.0251
     16 H3        -18.0847   14.1310   -6.1295 H           1 Z70       0.0359
     17 H4        -17.3983   13.3304   -7.5375 H           1 Z70       0.0359
     18 H5        -20.3827   13.7660   -6.9215 H           1 Z70       0.0424
     19 H6        -19.7834   13.0911   -8.4484 H           1 Z70       0.0424
     20 H7        -17.9768   16.0251   -9.8646 H           1 Z70       0.2010
     21 H8        -18.8494   14.6094   -9.7602 H           1 Z70       0.2010
     22 H9        -17.1933   14.5816   -9.5863 H           1 Z70       0.2010
     23 H10       -19.7249   10.5781   -8.3902 H           1 Z70       0.2341
     24 H11       -19.5042    7.7177   -6.1445 H           1 Z70       0.1788
     25 H12       -19.7110    8.1062   -7.7684 H           1 Z70       0.1788
@<TRIPOS>BOND
     1     1     2   1
     2     6     1   1
     3     1     8   1
     4     2    12  ar
     5     2    13  ar
     6     3     5   2
     7     7     3   1
     8     3     9   1
     9     9     4   1
    10     4    10   2
    11     4    11   1
    12     5    10   1
    13     6     7   1
    14     1    14   1
    15     5    15   1
    16     6    16   1
    17     6    17   1
    18     7    18   1
    19     7    19   1
    20     8    20   1
    21     8    21   1
    22     8    22   1
    23     9    23   1
    24    11    24   1
    25    11    25   1
@<TRIPOS>SUBSTRUCTURE
     1  Z70      1

