@<TRIPOS>MOLECULE
3mfv_ligand_000
    25    25
SMALL
GAST_HUCK
****
This file was generated by PARSER (from files_GN.cpp)

@<TRIPOS>ATOM
      1 CA        -19.6191   14.9800   -2.9980 C.3         1 Z70       0.0300
      2 C         -18.7233   15.3652   -1.8848 C.2         1 Z70       0.0846
      3 C3        -19.8972   14.4273   -5.9785 C.2         1 Z70       0.0382
      4 C4        -19.5527   12.3647   -6.5811 C.2         1 Z70       0.1941
      5 C5        -18.6062   14.2958   -6.4755 C.2         1 Z70      -0.0516
      6 C6        -19.8117   16.0938   -4.0766 C.3         1 Z70       0.0122
      7 C7        -20.5140   15.6287   -5.3835 C.3         1 Z70       0.0023
      8 N         -20.9142   14.5571   -2.4339 N.4         1 Z70       0.2328
      9 N2        -20.4588   13.2150   -6.0667 N.pl3       1 Z70      -0.2452
     10 N3        -18.4071   13.0214   -6.8403 N.2         1 Z70      -0.3473
     11 N4        -19.7508   11.0511   -6.7790 N.pl3       1 Z70      -0.3004
     12 OXT       -18.6283   14.5666   -0.7973 O.co2       1 Z70      -0.5643
     13 O         -17.9880   16.5053   -1.8798 O.co2       1 Z70      -0.5643
     14 H1        -19.1671   14.1076   -3.4674 H           1 Z70       0.1026
     15 H2        -17.9140   15.0342   -6.5393 H           1 Z70       0.0251
     16 H3        -18.8319   16.5019   -4.3579 H           1 Z70       0.0359
     17 H4        -20.3904   16.9186   -3.6448 H           1 Z70       0.0359
     18 H5        -21.5596   15.4234   -5.1679 H           1 Z70       0.0424
     19 H6        -20.4866   16.4325   -6.1160 H           1 Z70       0.0424
     20 H7        -20.8951   13.5495   -2.2793 H           1 Z70       0.2010
     21 H8        -21.6836   14.7791   -3.0704 H           1 Z70       0.2010
     22 H9        -21.0679   15.0389   -1.5447 H           1 Z70       0.2010
     23 H10       -21.3597   12.9804   -5.7817 H           1 Z70       0.2341
     24 H11       -19.0363   10.5028   -7.1434 H           1 Z70       0.1788
     25 H12       -20.6015   10.6545   -6.5410 H           1 Z70       0.1788
@<TRIPOS>BOND
     1     1     2   1
     2     6     1   1
     3     1     8   1
     4     2    12  ar
     5     2    13  ar
     6     3     5   2
     7     7     3   1
     8     3     9   1
     9     9     4   1
    10     4    10   2
    11     4    11   1
    12     5    10   1
    13     6     7   1
    14     1    14   1
    15     5    15   1
    16     6    16   1
    17     6    17   1
    18     7    18   1
    19     7    19   1
    20     8    20   1
    21     8    21   1
    22     8    22   1
    23     9    23   1
    24    11    24   1
    25    11    25   1
@<TRIPOS>SUBSTRUCTURE
     1  Z70      1

