@<TRIPOS>MOLECULE
3mfv_ligand_033
    25    25
SMALL
GAST_HUCK
****
This file was generated by PARSER (from files_GN.cpp)

@<TRIPOS>ATOM
      1 CA        -17.4384   16.8240   -5.3707 C.3         1 Z70       0.0300
      2 C         -17.3458   15.3523   -5.5124 C.2         1 Z70       0.0846
      3 C3        -19.6649   17.1167   -7.5766 C.2         1 Z70       0.0382
      4 C4        -21.3684   15.8175   -7.2066 C.2         1 Z70       0.1941
      5 C5        -20.1378   16.6161   -8.7864 C.2         1 Z70      -0.0516
      6 C6        -17.2863   17.5839   -6.7282 C.3         1 Z70       0.0122
      7 C7        -18.6023   18.1206   -7.3584 C.3         1 Z70       0.0023
      8 N         -16.4049   17.2729   -4.4176 N.4         1 Z70       0.2328
      9 N2        -20.4462   16.5954   -6.6235 N.pl3       1 Z70      -0.2452
     10 N3        -21.1927   15.8232   -8.5405 N.2         1 Z70      -0.3473
     11 N4        -22.3514   15.1803   -6.5554 N.pl3       1 Z70      -0.3004
     12 OXT       -18.2861   14.5397   -4.9676 O.co2       1 Z70      -0.5643
     13 O         -16.2451   14.7776   -6.0638 O.co2       1 Z70      -0.5643
     14 H1        -18.4008   17.0801   -4.9162 H           1 Z70       0.1026
     15 H2        -19.7756   16.8472   -9.7142 H           1 Z70       0.0251
     16 H3        -16.7659   16.9554   -7.4626 H           1 Z70       0.0359
     17 H4        -16.6472   18.4592   -6.5609 H           1 Z70       0.0359
     18 H5        -19.0064   18.9106   -6.7183 H           1 Z70       0.0424
     19 H6        -18.3459   18.5781   -8.3200 H           1 Z70       0.0424
     20 H7        -16.4375   16.7048   -3.5666 H           1 Z70       0.2010
     21 H8        -16.6031   18.2491   -4.1807 H           1 Z70       0.2010
     22 H9        -15.4706   17.1997   -4.8352 H           1 Z70       0.2010
     23 H10       -20.3908   16.7960   -5.6755 H           1 Z70       0.2341
     24 H11       -23.0135   14.6816   -7.0541 H           1 Z70       0.1788
     25 H12       -22.4178   15.2477   -5.5893 H           1 Z70       0.1788
@<TRIPOS>BOND
     1     1     2   1
     2     6     1   1
     3     1     8   1
     4     2    12  ar
     5     2    13  ar
     6     3     5   2
     7     7     3   1
     8     3     9   1
     9     9     4   1
    10     4    10   2
    11     4    11   1
    12     5    10   1
    13     6     7   1
    14     1    14   1
    15     5    15   1
    16     6    16   1
    17     6    17   1
    18     7    18   1
    19     7    19   1
    20     8    20   1
    21     8    21   1
    22     8    22   1
    23     9    23   1
    24    11    24   1
    25    11    25   1
@<TRIPOS>SUBSTRUCTURE
     1  Z70      1

