@<TRIPOS>MOLECULE
3mfv_ligand_025
    25    25
SMALL
GAST_HUCK
****
This file was generated by PARSER (from files_GN.cpp)

@<TRIPOS>ATOM
      1 CA        -19.5263   14.7492   -3.4514 C.3         1 Z70       0.0300
      2 C         -18.7661   16.0101   -3.3465 C.2         1 Z70       0.0846
      3 C3        -19.8216   13.9805   -6.4740 C.2         1 Z70       0.0382
      4 C4        -17.8573   13.8437   -7.4084 C.2         1 Z70       0.1941
      5 C5        -19.8435   14.6247   -7.7093 C.2         1 Z70      -0.0516
      6 C6        -20.8086   14.8937   -4.3345 C.3         1 Z70       0.0122
      7 C7        -20.9326   13.8740   -5.5004 C.3         1 Z70       0.0023
      8 N         -19.8599   14.2784   -2.0984 N.4         1 Z70       0.2328
      9 N2        -18.5772   13.5025   -6.3297 N.pl3       1 Z70      -0.2452
     10 N3        -18.6255   14.5344   -8.2673 N.2         1 Z70      -0.3473
     11 N4        -16.5631   13.5441   -7.5947 N.pl3       1 Z70      -0.3004
     12 OXT       -19.3464   17.1192   -2.8374 O.co2       1 Z70      -0.5643
     13 O         -17.5226   16.1144   -3.8716 O.co2       1 Z70      -0.5643
     14 H1        -18.8626   13.9906   -3.8682 H           1 Z70       0.1026
     15 H2        -20.6478   15.0997   -8.1238 H           1 Z70       0.0251
     16 H3        -20.8702   15.8970   -4.7710 H           1 Z70       0.0359
     17 H4        -21.6933   14.7915   -3.6959 H           1 Z70       0.0359
     18 H5        -20.9814   12.8526   -5.1143 H           1 Z70       0.0424
     19 H6        -21.8734   14.0722   -6.0215 H           1 Z70       0.0424
     20 H7        -18.9970   14.0884   -1.5869 H           1 Z70       0.2010
     21 H8        -20.4054   13.4159   -2.1690 H           1 Z70       0.2010
     22 H9        -20.4004   14.9885   -1.5917 H           1 Z70       0.2010
     23 H10       -18.2455   12.9934   -5.5745 H           1 Z70       0.2341
     24 H11       -16.1070   13.8327   -8.4022 H           1 Z70       0.1788
     25 H12       -16.0787   13.0428   -6.9191 H           1 Z70       0.1788
@<TRIPOS>BOND
     1     1     2   1
     2     6     1   1
     3     1     8   1
     4     2    12  ar
     5     2    13  ar
     6     3     5   2
     7     7     3   1
     8     3     9   1
     9     9     4   1
    10     4    10   2
    11     4    11   1
    12     5    10   1
    13     6     7   1
    14     1    14   1
    15     5    15   1
    16     6    16   1
    17     6    17   1
    18     7    18   1
    19     7    19   1
    20     8    20   1
    21     8    21   1
    22     8    22   1
    23     9    23   1
    24    11    24   1
    25    11    25   1
@<TRIPOS>SUBSTRUCTURE
     1  Z70      1

