@<TRIPOS>MOLECULE
3mfv_ligand_004
    25    25
SMALL
GAST_HUCK
****
This file was generated by PARSER (from files_GN.cpp)

@<TRIPOS>ATOM
      1 CA        -20.3273   15.3934   -3.2214 C.3         1 Z70       0.0300
      2 C         -20.8236   15.1564   -4.5941 C.2         1 Z70       0.0846
      3 C3        -17.7736   16.6779   -4.6239 C.2         1 Z70       0.0382
      4 C4        -18.0500   17.8976   -6.4046 C.2         1 Z70       0.1941
      5 C5        -17.0424   16.1344   -5.6749 C.2         1 Z70      -0.0516
      6 C6        -18.8221   15.0229   -3.0103 C.3         1 Z70       0.0122
      7 C7        -17.8340   16.1985   -3.2327 C.3         1 Z70       0.0023
      8 N         -21.1865   14.6638   -2.2803 N.4         1 Z70       0.2328
      9 N2        -18.3810   17.7663   -5.1103 N.pl3       1 Z70      -0.2452
     10 N3        -17.2252   16.8997   -6.7623 N.2         1 Z70      -0.3473
     11 N4        -18.4741   18.8749   -7.2165 N.pl3       1 Z70      -0.3004
     12 OXT       -21.7812   15.9646   -5.0983 O.co2       1 Z70      -0.5643
     13 O         -20.6662   13.9505   -5.1796 O.co2       1 Z70      -0.5643
     14 H1        -20.4736   16.4519   -2.9860 H           1 Z70       0.1026
     15 H2        -16.4435   15.3058   -5.6270 H           1 Z70       0.0251
     16 H3        -18.5248   14.1773   -3.6392 H           1 Z70       0.0359
     17 H4        -18.6755   14.6949   -1.9759 H           1 Z70       0.0359
     18 H5        -18.1118   17.0276   -2.5797 H           1 Z70       0.0424
     19 H6        -16.8282   15.8844   -2.9351 H           1 Z70       0.0424
     20 H7        -22.1628   14.9435   -2.4072 H           1 Z70       0.2010
     21 H8        -20.9018   14.8986   -1.3322 H           1 Z70       0.2010
     22 H9        -21.0967   13.6580   -2.4284 H           1 Z70       0.2010
     23 H10       -18.9496   18.3670   -4.6016 H           1 Z70       0.2341
     24 H11       -18.1795   18.9015   -8.1391 H           1 Z70       0.1788
     25 H12       -19.0711   19.5607   -6.8802 H           1 Z70       0.1788
@<TRIPOS>BOND
     1     1     2   1
     2     6     1   1
     3     1     8   1
     4     2    12  ar
     5     2    13  ar
     6     3     5   2
     7     7     3   1
     8     3     9   1
     9     9     4   1
    10     4    10   2
    11     4    11   1
    12     5    10   1
    13     6     7   1
    14     1    14   1
    15     5    15   1
    16     6    16   1
    17     6    17   1
    18     7    18   1
    19     7    19   1
    20     8    20   1
    21     8    21   1
    22     8    22   1
    23     9    23   1
    24    11    24   1
    25    11    25   1
@<TRIPOS>SUBSTRUCTURE
     1  Z70      1

