@<TRIPOS>MOLECULE
3mfv_ligand_024
    25    25
SMALL
GAST_HUCK
****
This file was generated by PARSER (from files_GN.cpp)

@<TRIPOS>ATOM
      1 CA        -17.9302   17.0827   -5.4244 C.3         1 Z70       0.0300
      2 C         -17.3834   15.9362   -4.6739 C.2         1 Z70       0.0846
      3 C3        -20.5740   17.9171   -6.7172 C.2         1 Z70       0.0382
      4 C4        -22.2904   17.6066   -5.4172 C.2         1 Z70       0.1941
      5 C5        -21.1141   19.1498   -6.3602 C.2         1 Z70      -0.0516
      6 C6        -18.4080   16.6585   -6.8434 C.3         1 Z70       0.0122
      7 C7        -19.3697   17.6594   -7.5313 C.3         1 Z70       0.0023
      8 N         -16.9322   18.1606   -5.5017 N.4         1 Z70       0.2328
      9 N2        -21.3375   16.9870   -6.1231 N.pl3       1 Z70      -0.2452
     10 N3        -22.1738   18.9354   -5.5641 N.2         1 Z70      -0.3473
     11 N4        -23.2056   16.9828   -4.6593 N.pl3       1 Z70      -0.3004
     12 OXT       -16.1592   15.4296   -4.9641 O.co2       1 Z70      -0.5643
     13 O         -18.1819   15.2229   -3.8427 O.co2       1 Z70      -0.5643
     14 H1        -18.7821   17.4749   -4.8577 H           1 Z70       0.1026
     15 H2        -20.7637   20.0607   -6.6462 H           1 Z70       0.0251
     16 H3        -18.9159   15.6879   -6.7814 H           1 Z70       0.0359
     17 H4        -17.5325   16.5178   -7.4841 H           1 Z70       0.0359
     18 H5        -18.8490   18.5991   -7.7457 H           1 Z70       0.0424
     19 H6        -19.6926   17.2415   -8.4890 H           1 Z70       0.0424
     20 H7        -16.7809   18.5493   -4.5670 H           1 Z70       0.2010
     21 H8        -17.2746   18.9020   -6.1157 H           1 Z70       0.2010
     22 H9        -16.0489   17.8015   -5.8663 H           1 Z70       0.2010
     23 H10       -21.1967   16.0261   -6.1677 H           1 Z70       0.2341
     24 H11       -23.8570   17.4972   -4.1508 H           1 Z70       0.1788
     25 H12       -23.2046   16.0154   -4.5989 H           1 Z70       0.1788
@<TRIPOS>BOND
     1     1     2   1
     2     6     1   1
     3     1     8   1
     4     2    12  ar
     5     2    13  ar
     6     3     5   2
     7     7     3   1
     8     3     9   1
     9     9     4   1
    10     4    10   2
    11     4    11   1
    12     5    10   1
    13     6     7   1
    14     1    14   1
    15     5    15   1
    16     6    16   1
    17     6    17   1
    18     7    18   1
    19     7    19   1
    20     8    20   1
    21     8    21   1
    22     8    22   1
    23     9    23   1
    24    11    24   1
    25    11    25   1
@<TRIPOS>SUBSTRUCTURE
     1  Z70      1

