@<TRIPOS>MOLECULE
3mfv_ligand_027
    25    25
SMALL
GAST_HUCK
****
This file was generated by PARSER (from files_GN.cpp)

@<TRIPOS>ATOM
      1 CA        -17.8215   18.2899   -6.8753 C.3         1 Z70       0.0300
      2 C         -16.9525   17.1010   -6.7435 C.2         1 Z70       0.0846
      3 C3        -18.6863   20.7487   -8.8704 C.2         1 Z70       0.0382
      4 C4        -20.2682   21.2426  -10.2877 C.2         1 Z70       0.1941
      5 C5        -18.4439   20.1097  -10.0843 C.2         1 Z70      -0.0516
      6 C6        -17.0054   19.5272   -7.3525 C.3         1 Z70       0.0122
      7 C7        -17.8343   20.8036   -7.6613 C.3         1 Z70       0.0023
      8 N         -18.5111   18.5760   -5.6048 N.4         1 Z70       0.2328
      9 N2        -19.8223   21.4394   -9.0381 N.pl3       1 Z70      -0.2452
     10 N3        -19.4299   20.4201  -10.9401 N.2         1 Z70      -0.3473
     11 N4        -21.3604   21.8063  -10.8258 N.pl3       1 Z70      -0.3004
     12 OXT       -16.2887   16.6325   -7.8235 O.co2       1 Z70      -0.5643
     13 O         -16.8199   16.4269   -5.5791 O.co2       1 Z70      -0.5643
     14 H1        -18.5857   18.0501   -7.6191 H           1 Z70       0.1026
     15 H2        -17.6437   19.5158  -10.3062 H           1 Z70       0.0251
     16 H3        -16.4336   19.2708   -8.2480 H           1 Z70       0.0359
     17 H4        -16.2755   19.7803   -6.5784 H           1 Z70       0.0359
     18 H5        -18.4531   21.0492   -6.7953 H           1 Z70       0.0424
     19 H6        -17.1351   21.6315   -7.7992 H           1 Z70       0.0424
     20 H7        -19.0304   17.7483   -5.3011 H           1 Z70       0.2010
     21 H8        -19.1625   19.3526   -5.7318 H           1 Z70       0.2010
     22 H9        -17.8293   18.8234   -4.8842 H           1 Z70       0.2010
     23 H10       -20.2239   22.0151   -8.3714 H           1 Z70       0.2341
     24 H11       -21.5988   21.6194  -11.7467 H           1 Z70       0.1788
     25 H12       -21.9088   22.4100  -10.3011 H           1 Z70       0.1788
@<TRIPOS>BOND
     1     1     2   1
     2     6     1   1
     3     1     8   1
     4     2    12  ar
     5     2    13  ar
     6     3     5   2
     7     7     3   1
     8     3     9   1
     9     9     4   1
    10     4    10   2
    11     4    11   1
    12     5    10   1
    13     6     7   1
    14     1    14   1
    15     5    15   1
    16     6    16   1
    17     6    17   1
    18     7    18   1
    19     7    19   1
    20     8    20   1
    21     8    21   1
    22     8    22   1
    23     9    23   1
    24    11    24   1
    25    11    25   1
@<TRIPOS>SUBSTRUCTURE
     1  Z70      1

