@<TRIPOS>MOLECULE
3mfv_ligand_003
    25    25
SMALL
GAST_HUCK
****
This file was generated by PARSER (from files_GN.cpp)

@<TRIPOS>ATOM
      1 CA        -22.6204   16.8802   -5.2388 C.3         1 Z70       0.0300
      2 C         -21.7896   18.0998   -5.4143 C.2         1 Z70       0.0846
      3 C3        -20.2897   13.7632   -5.6643 C.2         1 Z70       0.0382
      4 C4        -19.5302   11.7780   -6.1305 C.2         1 Z70       0.1941
      5 C5        -19.5581   13.8062   -6.8481 C.2         1 Z70      -0.0516
      6 C6        -21.9992   15.6063   -5.8878 C.3         1 Z70       0.0122
      7 C7        -20.9550   14.8904   -4.9812 C.3         1 Z70       0.0023
      8 N         -23.9666   17.1013   -5.7960 N.4         1 Z70       0.2328
      9 N2        -20.2420   12.4895   -5.2413 N.pl3       1 Z70      -0.2452
     10 N3        -19.1088   12.5748   -7.1260 N.2         1 Z70      -0.3473
     11 N4        -19.2786   10.4628   -6.0420 N.pl3       1 Z70      -0.3004
     12 OXT       -20.4405   18.0372   -5.4258 O.co2       1 Z70      -0.5643
     13 O         -22.3329   19.3360   -5.5320 O.co2       1 Z70      -0.5643
     14 H1        -22.7603   16.7085   -4.1703 H           1 Z70       0.1026
     15 H2        -19.3979   14.6364   -7.4252 H           1 Z70       0.0251
     16 H3        -21.5342   15.8816   -6.8401 H           1 Z70       0.0359
     17 H4        -22.7871   14.8781   -6.1103 H           1 Z70       0.0359
     18 H5        -20.1816   15.5884   -4.6571 H           1 Z70       0.0424
     19 H6        -21.4547   14.5134   -4.0844 H           1 Z70       0.0424
     20 H7        -24.4263   17.8678   -5.3096 H           1 Z70       0.2010
     21 H8        -24.5392   16.2654   -5.6955 H           1 Z70       0.2010
     22 H9        -23.8910   17.3299   -6.7858 H           1 Z70       0.2010
     23 H10       -20.6370   12.1425   -4.4214 H           1 Z70       0.2341
     24 H11       -18.7442   10.0292   -6.7250 H           1 Z70       0.1788
     25 H12       -19.6342    9.9557   -5.2973 H           1 Z70       0.1788
@<TRIPOS>BOND
     1     1     2   1
     2     6     1   1
     3     1     8   1
     4     2    12  ar
     5     2    13  ar
     6     3     5   2
     7     7     3   1
     8     3     9   1
     9     9     4   1
    10     4    10   2
    11     4    11   1
    12     5    10   1
    13     6     7   1
    14     1    14   1
    15     5    15   1
    16     6    16   1
    17     6    17   1
    18     7    18   1
    19     7    19   1
    20     8    20   1
    21     8    21   1
    22     8    22   1
    23     9    23   1
    24    11    24   1
    25    11    25   1
@<TRIPOS>SUBSTRUCTURE
     1  Z70      1

