@<TRIPOS>MOLECULE
3mfv_ligand_035
    25    25
SMALL
GAST_HUCK
****
This file was generated by PARSER (from files_GN.cpp)

@<TRIPOS>ATOM
      1 CA        -22.0040   15.7275   -6.6680 C.3         1 Z70       0.0300
      2 C         -21.8772   15.4987   -8.1195 C.2         1 Z70       0.0846
      3 C3        -19.9064   15.4154   -4.1594 C.2         1 Z70       0.0382
      4 C4        -18.1145   16.2535   -3.2542 C.2         1 Z70       0.1941
      5 C5        -18.9928   15.7422   -5.1570 C.2         1 Z70      -0.0516
      6 C6        -21.6087   14.4960   -5.7990 C.3         1 Z70       0.0122
      7 C7        -21.2411   14.8132   -4.3212 C.3         1 Z70       0.0023
      8 N         -23.3977   16.1078   -6.3871 N.4         1 Z70       0.2328
      9 N2        -19.3289   15.7542   -2.9977 N.pl3       1 Z70      -0.2452
     10 N3        -17.8924   16.2498   -4.5803 N.2         1 Z70      -0.3473
     11 N4        -17.2527   16.6926   -2.3259 N.pl3       1 Z70      -0.3004
     12 OXT       -22.3569   14.3679   -8.6855 O.co2       1 Z70      -0.5643
     13 O         -21.2784   16.4127   -8.9172 O.co2       1 Z70      -0.5643
     14 H1        -21.3767   16.5775   -6.3739 H           1 Z70       0.1026
     15 H2        -19.1256   15.6059   -6.1620 H           1 Z70       0.0251
     16 H3        -20.7806   13.9579   -6.2761 H           1 Z70       0.0359
     17 H4        -22.4627   13.8124   -5.7803 H           1 Z70       0.0359
     18 H5        -22.0059   15.4676   -3.8870 H           1 Z70       0.0424
     19 H6        -21.2488   13.8811   -3.7506 H           1 Z70       0.0424
     20 H7        -23.6445   16.9377   -6.9342 H           1 Z70       0.2010
     21 H8        -23.4990   16.3218   -5.3914 H           1 Z70       0.2010
     22 H9        -24.0273   15.3404   -6.6337 H           1 Z70       0.2010
     23 H10       -19.7266   15.6479   -2.1147 H           1 Z70       0.2341
     24 H11       -16.3887   17.0490   -2.5923 H           1 Z70       0.1788
     25 H12       -17.4925   16.6582   -1.3840 H           1 Z70       0.1788
@<TRIPOS>BOND
     1     1     2   1
     2     6     1   1
     3     1     8   1
     4     2    12  ar
     5     2    13  ar
     6     3     5   2
     7     7     3   1
     8     3     9   1
     9     9     4   1
    10     4    10   2
    11     4    11   1
    12     5    10   1
    13     6     7   1
    14     1    14   1
    15     5    15   1
    16     6    16   1
    17     6    17   1
    18     7    18   1
    19     7    19   1
    20     8    20   1
    21     8    21   1
    22     8    22   1
    23     9    23   1
    24    11    24   1
    25    11    25   1
@<TRIPOS>SUBSTRUCTURE
     1  Z70      1

