@<TRIPOS>MOLECULE
3mfv_ligand_009
    25    25
SMALL
GAST_HUCK
****
This file was generated by PARSER (from files_GN.cpp)

@<TRIPOS>ATOM
      1 CA        -20.7228   15.7517   -6.2769 C.3         1 Z70       0.0300
      2 C         -20.3513   15.5357   -7.6930 C.2         1 Z70       0.0846
      3 C3        -19.1348   13.1353   -5.6113 C.2         1 Z70       0.0382
      4 C4        -20.1740   11.2294   -5.4859 C.2         1 Z70       0.1941
      5 C5        -19.0095   12.4560   -6.8200 C.2         1 Z70      -0.0516
      6 C6        -19.6014   15.6198   -5.1942 C.3         1 Z70       0.0122
      7 C7        -18.5725   14.4565   -5.2764 C.3         1 Z70       0.0023
      8 N         -21.8787   14.9075   -5.9351 N.4         1 Z70       0.2328
      9 N2        -19.8534   12.3410   -4.8075 N.pl3       1 Z70      -0.2452
     10 N3        -19.6647   11.2881   -6.7283 N.2         1 Z70      -0.3473
     11 N4        -20.8963   10.2162   -4.9792 N.pl3       1 Z70      -0.3004
     12 OXT       -21.2400   15.8503   -8.6611 O.co2       1 Z70      -0.5643
     13 O         -19.1477   15.0599   -8.0840 O.co2       1 Z70      -0.5643
     14 H1        -21.0858   16.7860   -6.2199 H           1 Z70       0.1026
     15 H2        -18.5179   12.8000   -7.6473 H           1 Z70       0.0251
     16 H3        -20.0915   15.5623   -4.2190 H           1 Z70       0.0359
     17 H4        -19.0257   16.5475   -5.1989 H           1 Z70       0.0359
     18 H5        -17.7965   14.7029   -6.0008 H           1 Z70       0.0424
     19 H6        -18.0789   14.3690   -4.3062 H           1 Z70       0.0424
     20 H7        -22.6346   15.0651   -6.6070 H           1 Z70       0.2010
     21 H8        -22.2038   15.1669   -4.9992 H           1 Z70       0.2010
     22 H9        -21.6170   13.9193   -5.9436 H           1 Z70       0.2010
     23 H10       -20.1017   12.5126   -3.8863 H           1 Z70       0.2341
     24 H11       -21.1021    9.4375   -5.5267 H           1 Z70       0.1788
     25 H12       -21.2132   10.2724   -4.0611 H           1 Z70       0.1788
@<TRIPOS>BOND
     1     1     2   1
     2     6     1   1
     3     1     8   1
     4     2    12  ar
     5     2    13  ar
     6     3     5   2
     7     7     3   1
     8     3     9   1
     9     9     4   1
    10     4    10   2
    11     4    11   1
    12     5    10   1
    13     6     7   1
    14     1    14   1
    15     5    15   1
    16     6    16   1
    17     6    17   1
    18     7    18   1
    19     7    19   1
    20     8    20   1
    21     8    21   1
    22     8    22   1
    23     9    23   1
    24    11    24   1
    25    11    25   1
@<TRIPOS>SUBSTRUCTURE
     1  Z70      1

