@<TRIPOS>MOLECULE
3mfv_ligand_002
    25    25
SMALL
GAST_HUCK
****
This file was generated by PARSER (from files_GN.cpp)

@<TRIPOS>ATOM
      1 CA        -20.6775   14.6700   -3.7788 C.3         1 Z70       0.0300
      2 C         -19.4074   13.9444   -3.7180 C.2         1 Z70       0.0846
      3 C3        -21.2386   18.0181   -5.7107 C.2         1 Z70       0.0382
      4 C4        -20.3977   19.6568   -6.8596 C.2         1 Z70       0.1941
      5 C5        -21.6787   19.2271   -5.1764 C.2         1 Z70      -0.0516
      6 C6        -20.4861   16.1614   -4.2034 C.3         1 Z70       0.0122
      7 C7        -21.5563   16.6632   -5.2157 C.3         1 Z70       0.0023
      8 N         -21.3243   14.5507   -2.4619 N.4         1 Z70       0.2328
      9 N2        -20.4548   18.3233   -6.7568 N.pl3       1 Z70      -0.2452
     10 N3        -21.1443   20.2217   -5.8940 N.2         1 Z70      -0.3473
     11 N4        -19.7042   20.3467   -7.7774 N.pl3       1 Z70      -0.3004
     12 OXT       -19.1596   12.9334   -4.5985 O.co2       1 Z70      -0.5643
     13 O         -18.3968   14.3819   -2.9337 O.co2       1 Z70      -0.5643
     14 H1        -21.3167   14.1693   -4.5017 H           1 Z70       0.1026
     15 H2        -22.2831   19.3431   -4.3709 H           1 Z70       0.0251
     16 H3        -19.4984   16.2950   -4.6694 H           1 Z70       0.0359
     17 H4        -20.5066   16.8029   -3.3077 H           1 Z70       0.0359
     18 H5        -21.6073   15.9816   -6.0720 H           1 Z70       0.0424
     19 H6        -22.5407   16.6600   -4.7202 H           1 Z70       0.0424
     20 H7        -21.4327   13.5499   -2.2537 H           1 Z70       0.2010
     21 H8        -22.2376   14.9882   -2.4763 H           1 Z70       0.2010
     22 H9        -20.7598   14.9813   -1.7236 H           1 Z70       0.2010
     23 H10       -20.0025   17.6879   -7.3299 H           1 Z70       0.2341
     24 H11       -19.7190   21.3211   -7.7598 H           1 Z70       0.1788
     25 H12       -19.1735   19.8875   -8.4459 H           1 Z70       0.1788
@<TRIPOS>BOND
     1     1     2   1
     2     6     1   1
     3     1     8   1
     4     2    12  ar
     5     2    13  ar
     6     3     5   2
     7     7     3   1
     8     3     9   1
     9     9     4   1
    10     4    10   2
    11     4    11   1
    12     5    10   1
    13     6     7   1
    14     1    14   1
    15     5    15   1
    16     6    16   1
    17     6    17   1
    18     7    18   1
    19     7    19   1
    20     8    20   1
    21     8    21   1
    22     8    22   1
    23     9    23   1
    24    11    24   1
    25    11    25   1
@<TRIPOS>SUBSTRUCTURE
     1  Z70      1

