@<TRIPOS>MOLECULE
3mfv_ligand_017
    25    25
SMALL
GAST_HUCK
****
This file was generated by PARSER (from files_GN.cpp)

@<TRIPOS>ATOM
      1 CA        -19.9075   15.0492   -6.9505 C.3         1 Z70       0.0300
      2 C         -18.6190   15.6924   -6.6110 C.2         1 Z70       0.0846
      3 C3        -20.3208   11.9619   -5.3594 C.2         1 Z70       0.0382
      4 C4        -21.4831   10.1433   -5.6084 C.2         1 Z70       0.1941
      5 C5        -19.5648   11.0281   -6.0626 C.2         1 Z70      -0.0516
      6 C6        -20.6496   14.4562   -5.7137 C.3         1 Z70       0.0122
      7 C7        -19.9266   13.3169   -4.9281 C.3         1 Z70       0.0023
      8 N         -19.7261   14.0471   -8.0105 N.4         1 Z70       0.2328
      9 N2        -21.4931   11.3833   -5.0975 N.pl3       1 Z70      -0.2452
     10 N3        -20.3005    9.9162   -6.2158 N.2         1 Z70      -0.3473
     11 N4        -22.4916    9.2727   -5.5145 N.pl3       1 Z70      -0.3004
     12 OXT       -17.4905   14.9740   -6.4302 O.co2       1 Z70      -0.5643
     13 O         -18.5231   17.0416   -6.5129 O.co2       1 Z70      -0.5643
     14 H1        -20.5585   15.8209   -7.3728 H           1 Z70       0.1026
     15 H2        -18.6165   11.1598   -6.4124 H           1 Z70       0.0251
     16 H3        -21.6378   14.1086   -6.0426 H           1 Z70       0.0359
     17 H4        -20.8350   15.2846   -5.0200 H           1 Z70       0.0359
     18 H5        -18.8463   13.4130   -5.0121 H           1 Z70       0.0424
     19 H6        -20.1624   13.4106   -3.8669 H           1 Z70       0.0424
     20 H7        -19.3520   14.5012   -8.8466 H           1 Z70       0.2010
     21 H8        -20.6262   13.6125   -8.2363 H           1 Z70       0.2010
     22 H9        -19.0704   13.3301   -7.6989 H           1 Z70       0.2010
     23 H10       -22.2262   11.7732   -4.5926 H           1 Z70       0.2341
     24 H11       -22.4325    8.4079   -5.9436 H           1 Z70       0.1788
     25 H12       -23.3102    9.5392   -5.0693 H           1 Z70       0.1788
@<TRIPOS>BOND
     1     1     2   1
     2     6     1   1
     3     1     8   1
     4     2    12  ar
     5     2    13  ar
     6     3     5   2
     7     7     3   1
     8     3     9   1
     9     9     4   1
    10     4    10   2
    11     4    11   1
    12     5    10   1
    13     6     7   1
    14     1    14   1
    15     5    15   1
    16     6    16   1
    17     6    17   1
    18     7    18   1
    19     7    19   1
    20     8    20   1
    21     8    21   1
    22     8    22   1
    23     9    23   1
    24    11    24   1
    25    11    25   1
@<TRIPOS>SUBSTRUCTURE
     1  Z70      1

