@<TRIPOS>MOLECULE
3mfv_ligand_023
    25    25
SMALL
GAST_HUCK
****
This file was generated by PARSER (from files_GN.cpp)

@<TRIPOS>ATOM
      1 CA        -20.1297   10.3572   -6.4306 C.3         1 Z70       0.0300
      2 C         -19.4105   11.5179   -7.0008 C.2         1 Z70       0.0846
      3 C3        -20.7135   13.1906   -5.0624 C.2         1 Z70       0.0382
      4 C4        -19.0951   14.4351   -4.3149 C.2         1 Z70       0.1941
      5 C5        -20.3597   14.1201   -6.0409 C.2         1 Z70      -0.0516
      6 C6        -21.0123   10.6822   -5.1903 C.3         1 Z70       0.0122
      7 C7        -21.6857   12.0848   -5.1639 C.3         1 Z70       0.0023
      8 N         -19.1220    9.3522   -6.0715 N.4         1 Z70       0.2328
      9 N2        -19.9397   13.4387   -4.0037 N.pl3       1 Z70      -0.2452
     10 N3        -19.3500   14.8638   -5.5633 N.2         1 Z70      -0.3473
     11 N4        -18.1184   14.9074   -3.5305 N.pl3       1 Z70      -0.3004
     12 OXT       -19.7204   11.9998   -8.2265 O.co2       1 Z70      -0.5643
     13 O         -18.4373   12.1411   -6.3039 O.co2       1 Z70      -0.5643
     14 H1        -20.7634    9.9228   -7.2079 H           1 Z70       0.1026
     15 H2        -20.7710   14.1984   -6.9720 H           1 Z70       0.0251
     16 H3        -20.4104   10.5706   -4.2865 H           1 Z70       0.0359
     17 H4        -21.8016    9.9322   -5.1329 H           1 Z70       0.0359
     18 H5        -22.3153   12.2108   -6.0445 H           1 Z70       0.0424
     19 H6        -22.3297   12.1584   -4.2848 H           1 Z70       0.0424
     20 H7        -18.5270    9.1648   -6.8808 H           1 Z70       0.2010
     21 H8        -19.5582    8.4832   -5.7581 H           1 Z70       0.2010
     22 H9        -18.5345    9.7186   -5.3199 H           1 Z70       0.2010
     23 H10       -19.9970   12.9501   -3.1737 H           1 Z70       0.2341
     24 H11       -17.5208   15.5919   -3.8689 H           1 Z70       0.1788
     25 H12       -17.9668   14.5289   -2.6529 H           1 Z70       0.1788
@<TRIPOS>BOND
     1     1     2   1
     2     6     1   1
     3     1     8   1
     4     2    12  ar
     5     2    13  ar
     6     3     5   2
     7     7     3   1
     8     3     9   1
     9     9     4   1
    10     4    10   2
    11     4    11   1
    12     5    10   1
    13     6     7   1
    14     1    14   1
    15     5    15   1
    16     6    16   1
    17     6    17   1
    18     7    18   1
    19     7    19   1
    20     8    20   1
    21     8    21   1
    22     8    22   1
    23     9    23   1
    24    11    24   1
    25    11    25   1
@<TRIPOS>SUBSTRUCTURE
     1  Z70      1

