@<TRIPOS>MOLECULE
3mfv_ligand_019
    25    25
SMALL
GAST_HUCK
****
This file was generated by PARSER (from files_GN.cpp)

@<TRIPOS>ATOM
      1 CA        -17.8790   16.1767   -3.7664 C.3         1 Z70       0.0300
      2 C         -18.5603   17.2090   -4.5763 C.2         1 Z70       0.0846
      3 C3        -20.3849   14.8822   -5.3349 C.2         1 Z70       0.0382
      4 C4        -22.1922   16.0062   -5.8035 C.2         1 Z70       0.1941
      5 C5        -20.3421   15.3023   -6.6636 C.2         1 Z70      -0.0516
      6 C6        -18.7431   14.9354   -3.3984 C.3         1 Z70       0.0122
      7 C7        -19.3588   14.1297   -4.5800 C.3         1 Z70       0.0023
      8 N         -17.3553   16.7929   -2.5389 N.4         1 Z70       0.2328
      9 N2        -21.5516   15.3178   -4.8416 N.pl3       1 Z70      -0.2452
     10 N3        -21.4546   16.0007   -6.9276 N.2         1 Z70      -0.3473
     11 N4        -23.3663   16.6306   -5.6538 N.pl3       1 Z70      -0.3004
     12 OXT       -17.8241   18.1274   -5.2399 O.co2       1 Z70      -0.5643
     13 O         -19.8774   17.4806   -4.3856 O.co2       1 Z70      -0.5643
     14 H1        -17.0140   15.8217   -4.3419 H           1 Z70       0.1026
     15 H2        -19.5767   15.1450   -7.3200 H           1 Z70       0.0251
     16 H3        -19.5347   15.2300   -2.7019 H           1 Z70       0.0359
     17 H4        -18.0920   14.2467   -2.8529 H           1 Z70       0.0359
     18 H5        -18.5576   13.8084   -5.2534 H           1 Z70       0.0424
     19 H6        -19.8285   13.2267   -4.1805 H           1 Z70       0.0424
     20 H7        -16.7506   17.5817   -2.7758 H           1 Z70       0.2010
     21 H8        -16.8134   16.1076   -2.0170 H           1 Z70       0.2010
     22 H9        -18.1290   17.1210   -1.9531 H           1 Z70       0.2010
     23 H10       -21.8613   15.1978   -3.9329 H           1 Z70       0.2341
     24 H11       -23.7466   17.1307   -6.3940 H           1 Z70       0.1788
     25 H12       -23.8312   16.6022   -4.7998 H           1 Z70       0.1788
@<TRIPOS>BOND
     1     1     2   1
     2     6     1   1
     3     1     8   1
     4     2    12  ar
     5     2    13  ar
     6     3     5   2
     7     7     3   1
     8     3     9   1
     9     9     4   1
    10     4    10   2
    11     4    11   1
    12     5    10   1
    13     6     7   1
    14     1    14   1
    15     5    15   1
    16     6    16   1
    17     6    17   1
    18     7    18   1
    19     7    19   1
    20     8    20   1
    21     8    21   1
    22     8    22   1
    23     9    23   1
    24    11    24   1
    25    11    25   1
@<TRIPOS>SUBSTRUCTURE
     1  Z70      1

