@<TRIPOS>MOLECULE
3mfv_ligand_020
    25    25
SMALL
GAST_HUCK
****
This file was generated by PARSER (from files_GN.cpp)

@<TRIPOS>ATOM
      1 CA        -16.2631   17.0835   -5.9600 C.3         1 Z70       0.0300
      2 C         -15.3664   16.5820   -7.0231 C.2         1 Z70       0.0846
      3 C3        -19.0423   17.1209   -4.4124 C.2         1 Z70       0.0382
      4 C4        -20.1870   15.9627   -2.9678 C.2         1 Z70       0.1941
      5 C5        -18.1870   16.6201   -3.4335 C.2         1 Z70      -0.0516
      6 C6        -17.6547   17.4615   -6.5453 C.3         1 Z70       0.0122
      7 C7        -18.7134   18.0115   -5.5468 C.3         1 Z70       0.0023
      8 N         -15.6367   18.2143   -5.2506 N.4         1 Z70       0.2328
      9 N2        -20.2725   16.6990   -4.0848 N.pl3       1 Z70      -0.2452
     10 N3        -18.9060   15.8870   -2.5715 N.2         1 Z70      -0.3473
     11 N4        -21.2190   15.4147   -2.3120 N.pl3       1 Z70      -0.3004
     12 OXT       -15.5604   15.3431   -7.5396 O.co2       1 Z70      -0.5643
     13 O         -14.4517   17.3771   -7.6202 O.co2       1 Z70      -0.5643
     14 H1        -16.3812   16.2753   -5.2386 H           1 Z70       0.1026
     15 H2        -17.1836   16.7857   -3.3562 H           1 Z70       0.0251
     16 H3        -18.0853   16.5845   -7.0401 H           1 Z70       0.0359
     17 H4        -17.5048   18.2270   -7.3116 H           1 Z70       0.0359
     18 H5        -18.3826   18.9762   -5.1533 H           1 Z70       0.0424
     19 H6        -19.6311   18.2061   -6.1048 H           1 Z70       0.0424
     20 H7        -14.8013   17.8764   -4.7628 H           1 Z70       0.2010
     21 H8        -16.2849   18.6108   -4.5630 H           1 Z70       0.2010
     22 H9        -15.3626   18.9423   -5.9192 H           1 Z70       0.2010
     23 H10       -21.0913   16.9086   -4.5632 H           1 Z70       0.2341
     24 H11       -21.0539   14.9717   -1.4646 H           1 Z70       0.1788
     25 H12       -22.1316   15.5378   -2.6216 H           1 Z70       0.1788
@<TRIPOS>BOND
     1     1     2   1
     2     6     1   1
     3     1     8   1
     4     2    12  ar
     5     2    13  ar
     6     3     5   2
     7     7     3   1
     8     3     9   1
     9     9     4   1
    10     4    10   2
    11     4    11   1
    12     5    10   1
    13     6     7   1
    14     1    14   1
    15     5    15   1
    16     6    16   1
    17     6    17   1
    18     7    18   1
    19     7    19   1
    20     8    20   1
    21     8    21   1
    22     8    22   1
    23     9    23   1
    24    11    24   1
    25    11    25   1
@<TRIPOS>SUBSTRUCTURE
     1  Z70      1

