@<TRIPOS>MOLECULE
3mfv_ligand_007
    25    25
SMALL
GAST_HUCK
****
This file was generated by PARSER (from files_GN.cpp)

@<TRIPOS>ATOM
      1 CA        -19.1810   19.0316   -6.0703 C.3         1 Z70       0.0300
      2 C         -20.6599   19.0836   -6.1338 C.2         1 Z70       0.0846
      3 C3        -19.1895   20.5631   -9.3465 C.2         1 Z70       0.0382
      4 C4        -20.7036   21.4310  -10.6429 C.2         1 Z70       0.1941
      5 C5        -19.0599   20.0292  -10.6226 C.2         1 Z70      -0.0516
      6 C6        -18.5209   18.9439   -7.4815 C.3         1 Z70       0.0122
      7 C7        -18.2978   20.3156   -8.1968 C.3         1 Z70       0.0023
      8 N         -18.7575   17.8885   -5.2493 N.4         1 Z70       0.2328
      9 N2        -20.2186   21.4161   -9.3889 N.pl3       1 Z70      -0.2452
     10 N3        -19.9944   20.5847  -11.4105 N.2         1 Z70      -0.3473
     11 N4        -21.7220   22.1878  -11.0809 N.pl3       1 Z70      -0.3004
     12 OXT       -21.3760   17.9365   -6.2060 O.co2       1 Z70      -0.5643
     13 O         -21.3265   20.2092   -5.7849 O.co2       1 Z70      -0.5643
     14 H1        -18.8143   19.9235   -5.5539 H           1 Z70       0.1026
     15 H2        -18.3535   19.3614  -10.9402 H           1 Z70       0.0251
     16 H3        -19.0946   18.2527   -8.1192 H           1 Z70       0.0359
     17 H4        -17.5328   18.4877   -7.3629 H           1 Z70       0.0359
     18 H5        -18.4050   21.1411   -7.4936 H           1 Z70       0.0424
     19 H6        -17.2684   20.3635   -8.5678 H           1 Z70       0.0424
     20 H7        -19.1203   18.0084   -4.3007 H           1 Z70       0.2010
     21 H8        -17.7315   17.8526   -5.2197 H           1 Z70       0.2010
     22 H9        -19.1169   17.0199   -5.6537 H           1 Z70       0.2010
     23 H10       -20.5234   21.9499   -8.6415 H           1 Z70       0.2341
     24 H11       -21.9837   22.1418  -12.0148 H           1 Z70       0.1788
     25 H12       -22.1942   22.7683  -10.4672 H           1 Z70       0.1788
@<TRIPOS>BOND
     1     1     2   1
     2     6     1   1
     3     1     8   1
     4     2    12  ar
     5     2    13  ar
     6     3     5   2
     7     7     3   1
     8     3     9   1
     9     9     4   1
    10     4    10   2
    11     4    11   1
    12     5    10   1
    13     6     7   1
    14     1    14   1
    15     5    15   1
    16     6    16   1
    17     6    17   1
    18     7    18   1
    19     7    19   1
    20     8    20   1
    21     8    21   1
    22     8    22   1
    23     9    23   1
    24    11    24   1
    25    11    25   1
@<TRIPOS>SUBSTRUCTURE
     1  Z70      1

