@<TRIPOS>MOLECULE
3mss_ligand_026
    42    43
SMALL
GAST_HUCK
****
This file was generated by PARSER (from files_GN.cpp)

@<TRIPOS>ATOM
      1 N1         -3.4988   -6.1144  -29.7121 N.4         1 MS7       0.2392
      2 C4         -4.0902   -6.0066  -31.0596 C.3         1 MS7       0.0728
      3 C6         -4.7418   -7.3669  -31.4655 C.3         1 MS7       0.0365
      4 C9         -3.8243   -8.5396  -31.3742 C.ar        1 MS7      -0.0460
      5 C10        -3.9309   -9.4665  -30.3113 C.ar        1 MS7      -0.0684
      6 C12        -3.0725  -10.5797  -30.2336 C.ar        1 MS7      -0.0393
      7 C14        -2.0943  -10.7966  -31.2223 C.ar        1 MS7       0.0868
      8 C15        -1.9614   -9.8567  -32.2674 C.ar        1 MS7      -0.0393
      9 C17        -2.8222   -8.7468  -32.3491 C.ar        1 MS7      -0.0684
     10 O19        -1.2791  -11.8923  -31.0803 O.3         1 MS7      -0.3099
     11 C20        -1.2744  -12.9111  -32.1038 C.3         1 MS7       0.1028
     12 C23        -2.5644  -13.6292  -32.3250 C.ar        1 MS7      -0.0131
     13 C24        -2.6931  -15.0089  -32.0340 C.ar        1 MS7      -0.0578
     14 C26        -3.8817  -15.7064  -32.3327 C.ar        1 MS7      -0.0685
     15 C28        -4.9624  -15.0295  -32.9209 C.ar        1 MS7      -0.0687
     16 C30        -4.8551  -13.6577  -33.2077 C.ar        1 MS7      -0.0685
     17 C32        -3.6650  -12.9669  -32.9184 C.ar        1 MS7      -0.0578
     18 C34        -4.9827   -4.8501  -31.0778 C.2         1 MS7       0.2261
     19 O35        -6.1981   -4.9890  -31.1616 O.2         1 MS7      -0.3907
     20 N36        -4.4582   -3.6353  -30.9787 N.am        1 MS7      -0.2853
     21 C38        -5.1836   -2.4088  -30.9394 C.3         1 MS7       0.0197
     22 H1         -2.8163   -6.8755  -29.7008 H           1 MS7       0.2017
     23 H2         -4.2296   -6.3059  -29.0235 H           1 MS7       0.2017
     24 H3         -3.0241   -5.2446  -29.4655 H           1 MS7       0.2017
     25 H4         -3.2778   -5.8080  -31.7662 H           1 MS7       0.1120
     26 H5         -5.1111   -7.2989  -32.4937 H           1 MS7       0.0486
     27 H6         -5.6180   -7.5335  -30.8347 H           1 MS7       0.0486
     28 H7         -4.6263   -9.3372  -29.5734 H           1 MS7       0.0530
     29 H8         -3.1641  -11.2360  -29.4491 H           1 MS7       0.0525
     30 H9         -1.2461   -9.9784  -32.9838 H           1 MS7       0.0525
     31 H10        -2.7116   -8.0911  -33.1238 H           1 MS7       0.0530
     32 H11        -0.5112  -13.6224  -31.7827 H           1 MS7       0.0776
     33 H12        -0.9233  -12.5124  -33.0584 H           1 MS7       0.0776
     34 H13        -1.9159  -15.5297  -31.6208 H           1 MS7       0.0557
     35 H14        -3.9516  -16.7071  -32.1339 H           1 MS7       0.0599
     36 H15        -5.8193  -15.5352  -33.1529 H           1 MS7       0.0559
     37 H16        -5.6389  -13.1654  -33.6414 H           1 MS7       0.0599
     38 H17        -3.6073  -11.9786  -33.1684 H           1 MS7       0.0557
     39 H18        -3.4903   -3.5700  -30.9262 H           1 MS7       0.1849
     40 H19        -4.4734   -1.5829  -30.8791 H           1 MS7       0.0484
     41 H20        -5.8326   -2.3763  -30.0619 H           1 MS7       0.0484
     42 H21        -5.7830   -2.2880  -31.8435 H           1 MS7       0.0484
@<TRIPOS>BOND
     1     1     2   1
     2     2     3   1
     3     2    18   1
     4     3     4   1
     5     4     5  ar
     6     4     9  ar
     7     5     6  ar
     8     6     7  ar
     9     7     8  ar
    10     7    10   1
    11     8     9  ar
    12    10    11   1
    13    11    12   1
    14    12    13  ar
    15    12    17  ar
    16    13    14  ar
    17    14    15  ar
    18    15    16  ar
    19    16    17  ar
    20    18    19   2
    21    18    20  am
    22    20    21   1
    23     1    22   1
    24     1    23   1
    25     1    24   1
    26     2    25   1
    27     3    26   1
    28     3    27   1
    29     5    28   1
    30     6    29   1
    31     8    30   1
    32     9    31   1
    33    11    32   1
    34    11    33   1
    35    13    34   1
    36    14    35   1
    37    15    36   1
    38    16    37   1
    39    17    38   1
    40    20    39   1
    41    21    40   1
    42    21    41   1
    43    21    42   1
@<TRIPOS>SUBSTRUCTURE
     1  MS7      2

