@<TRIPOS>MOLECULE
3mss_ligand_001
    42    43
SMALL
GAST_HUCK
****
This file was generated by PARSER (from files_GN.cpp)

@<TRIPOS>ATOM
      1 N1         -3.9994  -11.7350  -32.7951 N.4         1 MS7       0.2392
      2 C4         -3.7654  -11.9935  -31.3587 C.3         1 MS7       0.0728
      3 C6         -2.7138  -10.9890  -30.7955 C.3         1 MS7       0.0365
      4 C9         -3.0102   -9.5540  -31.0655 C.ar        1 MS7      -0.0460
      5 C10        -3.8723   -8.8171  -30.2196 C.ar        1 MS7      -0.0684
      6 C12        -4.0891   -7.4412  -30.4321 C.ar        1 MS7      -0.0393
      7 C14        -3.4300   -6.7689  -31.4839 C.ar        1 MS7       0.0868
      8 C15        -2.6184   -7.5115  -32.3638 C.ar        1 MS7      -0.0393
      9 C17        -2.3988   -8.8845  -32.1512 C.ar        1 MS7      -0.0684
     10 O19        -3.6297   -5.4368  -31.7508 O.3         1 MS7      -0.3099
     11 C20        -3.1369   -4.4759  -30.7867 C.3         1 MS7       0.1028
     12 C23        -1.6595   -4.4286  -30.5823 C.ar        1 MS7      -0.0131
     13 C24        -0.7556   -4.8121  -31.5967 C.ar        1 MS7      -0.0578
     14 C26         0.6347   -4.7532  -31.3858 C.ar        1 MS7      -0.0685
     15 C28         1.1405   -4.2791  -30.1615 C.ar        1 MS7      -0.0687
     16 C30         0.2549   -3.8474  -29.1569 C.ar        1 MS7      -0.0685
     17 C32        -1.1406   -3.9185  -29.3677 C.ar        1 MS7      -0.0578
     18 C34        -5.0048  -12.0496  -30.5921 C.2         1 MS7       0.2261
     19 O35        -6.0875  -11.8607  -31.1522 O.2         1 MS7      -0.3907
     20 N36        -4.9757  -12.3751  -29.3077 N.am        1 MS7      -0.2853
     21 C38        -6.1148  -12.5985  -28.4815 C.3         1 MS7       0.0197
     22 H1         -3.1220  -11.7448  -33.3179 H           1 MS7       0.2017
     23 H2         -4.4448  -10.8218  -32.9112 H           1 MS7       0.2017
     24 H3         -4.6171  -12.4574  -33.1711 H           1 MS7       0.2017
     25 H4         -3.3207  -12.9899  -31.3107 H           1 MS7       0.1120
     26 H5         -1.7443  -11.2515  -31.2298 H           1 MS7       0.0486
     27 H6         -2.6092  -11.1338  -29.7168 H           1 MS7       0.0486
     28 H7         -4.3366   -9.2761  -29.4349 H           1 MS7       0.0530
     29 H8         -4.7163   -6.9278  -29.8045 H           1 MS7       0.0525
     30 H9         -2.1669   -7.0473  -33.1541 H           1 MS7       0.0525
     31 H10        -1.7884   -9.3898  -32.7993 H           1 MS7       0.0530
     32 H11        -3.6535   -4.6270  -29.8339 H           1 MS7       0.0776
     33 H12        -3.4366   -3.4955  -31.1524 H           1 MS7       0.0776
     34 H13        -1.0971   -5.1324  -32.5062 H           1 MS7       0.0557
     35 H14         1.2763   -5.0483  -32.1249 H           1 MS7       0.0599
     36 H15         2.1503   -4.2300  -30.0049 H           1 MS7       0.0559
     37 H16         0.6171   -3.4862  -28.2745 H           1 MS7       0.0599
     38 H17        -1.7677   -3.5821  -28.6325 H           1 MS7       0.0557
     39 H18        -4.1068  -12.4910  -28.8849 H           1 MS7       0.1849
     40 H19        -5.7947  -12.7365  -27.4485 H           1 MS7       0.0484
     41 H20        -6.6399  -13.4993  -28.8124 H           1 MS7       0.0484
     42 H21        -6.7944  -11.7451  -28.5287 H           1 MS7       0.0484
@<TRIPOS>BOND
     1     1     2   1
     2     2     3   1
     3     2    18   1
     4     3     4   1
     5     4     5  ar
     6     4     9  ar
     7     5     6  ar
     8     6     7  ar
     9     7     8  ar
    10     7    10   1
    11     8     9  ar
    12    10    11   1
    13    11    12   1
    14    12    13  ar
    15    12    17  ar
    16    13    14  ar
    17    14    15  ar
    18    15    16  ar
    19    16    17  ar
    20    18    19   2
    21    18    20  am
    22    20    21   1
    23     1    22   1
    24     1    23   1
    25     1    24   1
    26     2    25   1
    27     3    26   1
    28     3    27   1
    29     5    28   1
    30     6    29   1
    31     8    30   1
    32     9    31   1
    33    11    32   1
    34    11    33   1
    35    13    34   1
    36    14    35   1
    37    15    36   1
    38    16    37   1
    39    17    38   1
    40    20    39   1
    41    21    40   1
    42    21    41   1
    43    21    42   1
@<TRIPOS>SUBSTRUCTURE
     1  MS7      2

