@<TRIPOS>MOLECULE
3mss_ligand_017
    42    43
SMALL
GAST_HUCK
****
This file was generated by PARSER (from files_GN.cpp)

@<TRIPOS>ATOM
      1 N1         -1.8161   -9.7238  -33.2088 N.4         1 MS7       0.2392
      2 C4         -2.8580   -9.4217  -32.2109 C.3         1 MS7       0.0728
      3 C6         -3.0145  -10.6236  -31.2120 C.3         1 MS7       0.0365
      4 C9         -4.4208  -10.9993  -30.8851 C.ar        1 MS7      -0.0460
      5 C10        -4.8414  -11.2162  -29.5532 C.ar        1 MS7      -0.0684
      6 C12        -6.1573  -11.6466  -29.2753 C.ar        1 MS7      -0.0393
      7 C14        -7.0804  -11.8342  -30.3195 C.ar        1 MS7       0.0868
      8 C15        -6.6567  -11.6483  -31.6522 C.ar        1 MS7      -0.0393
      9 C17        -5.3396  -11.2628  -31.9309 C.ar        1 MS7      -0.0684
     10 O19        -8.3334  -12.3138  -30.0399 O.3         1 MS7      -0.3099
     11 C20        -9.4660  -11.4910  -30.4024 C.3         1 MS7       0.1028
     12 C23        -9.6211  -10.2690  -29.5710 C.ar        1 MS7      -0.0131
     13 C24        -9.9459   -9.0223  -30.1548 C.ar        1 MS7      -0.0578
     14 C26       -10.1567   -7.8881  -29.3462 C.ar        1 MS7      -0.0685
     15 C28       -10.0332   -7.9858  -27.9521 C.ar        1 MS7      -0.0687
     16 C30        -9.6991   -9.2198  -27.3582 C.ar        1 MS7      -0.0685
     17 C32        -9.5075  -10.3555  -28.1653 C.ar        1 MS7      -0.0578
     18 C34        -2.5719   -8.1390  -31.5876 C.2         1 MS7       0.2261
     19 O35        -3.3492   -7.2019  -31.7299 O.2         1 MS7      -0.3907
     20 N36        -1.4284   -7.9677  -30.9366 N.am        1 MS7      -0.2853
     21 C38        -0.9587   -6.7302  -30.4202 C.3         1 MS7       0.0197
     22 H1         -2.1048  -10.5446  -33.7434 H           1 MS7       0.2017
     23 H2         -0.9221   -9.9188  -32.7541 H           1 MS7       0.2017
     24 H3         -1.7049   -8.9338  -33.8441 H           1 MS7       0.2017
     25 H4         -3.7701   -9.3144  -32.7976 H           1 MS7       0.1120
     26 H5         -2.4446  -10.4276  -30.2969 H           1 MS7       0.0486
     27 H6         -2.5669  -11.5162  -31.6542 H           1 MS7       0.0486
     28 H7         -4.1871  -11.0935  -28.7739 H           1 MS7       0.0530
     29 H8         -6.4238  -11.8477  -28.3086 H           1 MS7       0.0525
     30 H9         -7.3061  -11.8145  -32.4234 H           1 MS7       0.0525
     31 H10        -5.0445  -11.1795  -32.9092 H           1 MS7       0.0530
     32 H11       -10.3527  -12.1020  -30.2388 H           1 MS7       0.0776
     33 H12        -9.4442  -11.2490  -31.4710 H           1 MS7       0.0776
     34 H13       -10.0506   -8.9329  -31.1687 H           1 MS7       0.0557
     35 H14       -10.4085   -6.9945  -29.7775 H           1 MS7       0.0599
     36 H15       -10.1816   -7.1621  -27.3631 H           1 MS7       0.0559
     37 H16        -9.5987   -9.2882  -26.3445 H           1 MS7       0.0599
     38 H17        -9.2765  -11.2467  -27.7164 H           1 MS7       0.0557
     39 H18        -0.8484   -8.7409  -30.8448 H           1 MS7       0.1849
     40 H19        -0.0100   -6.8963  -29.9087 H           1 MS7       0.0484
     41 H20        -1.6783   -6.3192  -29.7110 H           1 MS7       0.0484
     42 H21        -0.8037   -6.0209  -31.2365 H           1 MS7       0.0484
@<TRIPOS>BOND
     1     1     2   1
     2     2     3   1
     3     2    18   1
     4     3     4   1
     5     4     5  ar
     6     4     9  ar
     7     5     6  ar
     8     6     7  ar
     9     7     8  ar
    10     7    10   1
    11     8     9  ar
    12    10    11   1
    13    11    12   1
    14    12    13  ar
    15    12    17  ar
    16    13    14  ar
    17    14    15  ar
    18    15    16  ar
    19    16    17  ar
    20    18    19   2
    21    18    20  am
    22    20    21   1
    23     1    22   1
    24     1    23   1
    25     1    24   1
    26     2    25   1
    27     3    26   1
    28     3    27   1
    29     5    28   1
    30     6    29   1
    31     8    30   1
    32     9    31   1
    33    11    32   1
    34    11    33   1
    35    13    34   1
    36    14    35   1
    37    15    36   1
    38    16    37   1
    39    17    38   1
    40    20    39   1
    41    21    40   1
    42    21    41   1
    43    21    42   1
@<TRIPOS>SUBSTRUCTURE
     1  MS7      2

