@<TRIPOS>MOLECULE
3mss_ligand_013
    42    43
SMALL
GAST_HUCK
****
This file was generated by PARSER (from files_GN.cpp)

@<TRIPOS>ATOM
      1 N1         -5.2188  -14.0883  -27.5373 N.4         1 MS7       0.2392
      2 C4         -5.6935  -12.9424  -28.3435 C.3         1 MS7       0.0728
      3 C6         -5.0059  -12.9544  -29.7485 C.3         1 MS7       0.0365
      4 C9         -4.5976  -11.6506  -30.3549 C.ar        1 MS7      -0.0460
      5 C10        -3.9469  -11.6596  -31.6147 C.ar        1 MS7      -0.0684
      6 C12        -3.4295  -10.4727  -32.1736 C.ar        1 MS7      -0.0393
      7 C14        -3.5345   -9.2530  -31.4828 C.ar        1 MS7       0.0868
      8 C15        -4.1862   -9.2294  -30.2303 C.ar        1 MS7      -0.0393
      9 C17        -4.6788  -10.4170  -29.6588 C.ar        1 MS7      -0.0684
     10 O19        -3.0960   -8.0929  -32.0739 O.3         1 MS7      -0.3099
     11 C20        -1.7741   -7.6350  -31.7143 C.3         1 MS7       0.1028
     12 C23        -1.7985   -6.4291  -30.8402 C.ar        1 MS7      -0.0131
     13 C24        -0.5837   -5.8065  -30.4719 C.ar        1 MS7      -0.0578
     14 C26        -0.5779   -4.6616  -29.6523 C.ar        1 MS7      -0.0685
     15 C28        -1.7890   -4.1369  -29.1648 C.ar        1 MS7      -0.0687
     16 C30        -3.0042   -4.7553  -29.5041 C.ar        1 MS7      -0.0685
     17 C32        -3.0107   -5.8889  -30.3374 C.ar        1 MS7      -0.0578
     18 C34        -7.1504  -12.9361  -28.4105 C.2         1 MS7       0.2261
     19 O35        -7.7517  -11.9641  -27.9690 O.2         1 MS7      -0.3907
     20 N36        -7.8129  -13.9936  -28.8692 N.am        1 MS7      -0.2853
     21 C38        -9.2257  -14.1528  -28.8240 C.3         1 MS7       0.0197
     22 H1         -4.1921  -14.1079  -27.5469 H           1 MS7       0.2017
     23 H2         -5.5732  -14.9818  -27.9073 H           1 MS7       0.2017
     24 H3         -5.5318  -13.9619  -26.5703 H           1 MS7       0.2017
     25 H4         -5.3490  -12.0658  -27.7911 H           1 MS7       0.1120
     26 H5         -5.6563  -13.5046  -30.4510 H           1 MS7       0.0486
     27 H6         -4.0900  -13.5532  -29.6806 H           1 MS7       0.0486
     28 H7         -3.8280  -12.5357  -32.1331 H           1 MS7       0.0530
     29 H8         -2.9636  -10.5076  -33.0818 H           1 MS7       0.0525
     30 H9         -4.2786   -8.3472  -29.7161 H           1 MS7       0.0525
     31 H10        -5.0949  -10.3671  -28.7227 H           1 MS7       0.0530
     32 H11        -1.2898   -7.3712  -32.6605 H           1 MS7       0.0776
     33 H12        -1.1496   -8.4017  -31.2327 H           1 MS7       0.0776
     34 H13         0.3101   -6.1758  -30.8069 H           1 MS7       0.0557
     35 H14         0.3072   -4.2117  -29.4033 H           1 MS7       0.0599
     36 H15        -1.7856   -3.3062  -28.5652 H           1 MS7       0.0559
     37 H16        -3.8852   -4.3820  -29.1408 H           1 MS7       0.0599
     38 H17        -3.9071   -6.3177  -30.5650 H           1 MS7       0.0557
     39 H18        -7.2903  -14.7382  -29.2164 H           1 MS7       0.1849
     40 H19        -9.4843  -15.1415  -29.2010 H           1 MS7       0.0484
     41 H20        -9.7116  -13.3934  -29.4433 H           1 MS7       0.0484
     42 H21        -9.5756  -14.0662  -27.7904 H           1 MS7       0.0484
@<TRIPOS>BOND
     1     1     2   1
     2     2     3   1
     3     2    18   1
     4     3     4   1
     5     4     5  ar
     6     4     9  ar
     7     5     6  ar
     8     6     7  ar
     9     7     8  ar
    10     7    10   1
    11     8     9  ar
    12    10    11   1
    13    11    12   1
    14    12    13  ar
    15    12    17  ar
    16    13    14  ar
    17    14    15  ar
    18    15    16  ar
    19    16    17  ar
    20    18    19   2
    21    18    20  am
    22    20    21   1
    23     1    22   1
    24     1    23   1
    25     1    24   1
    26     2    25   1
    27     3    26   1
    28     3    27   1
    29     5    28   1
    30     6    29   1
    31     8    30   1
    32     9    31   1
    33    11    32   1
    34    11    33   1
    35    13    34   1
    36    14    35   1
    37    15    36   1
    38    16    37   1
    39    17    38   1
    40    20    39   1
    41    21    40   1
    42    21    41   1
    43    21    42   1
@<TRIPOS>SUBSTRUCTURE
     1  MS7      2

