@<TRIPOS>MOLECULE
3mss_ligand_002
    42    43
SMALL
GAST_HUCK
****
This file was generated by PARSER (from files_GN.cpp)

@<TRIPOS>ATOM
      1 N1         -1.7750  -11.6859  -31.9979 N.4         1 MS7       0.2392
      2 C4         -2.6663  -10.5650  -31.6271 C.3         1 MS7       0.0728
      3 C6         -2.3531   -9.3180  -32.5274 C.3         1 MS7       0.0365
      4 C9         -3.0031   -8.0094  -32.2089 C.ar        1 MS7      -0.0460
      5 C10        -2.3251   -6.8026  -32.5533 C.ar        1 MS7      -0.0684
      6 C12        -2.8999   -5.5411  -32.3139 C.ar        1 MS7      -0.0393
      7 C14        -4.1578   -5.4592  -31.6657 C.ar        1 MS7       0.0868
      8 C15        -4.8591   -6.6423  -31.3732 C.ar        1 MS7      -0.0393
      9 C17        -4.2991   -7.9017  -31.6608 C.ar        1 MS7      -0.0684
     10 O19        -4.6823   -4.2162  -31.3403 O.3         1 MS7      -0.3099
     11 C20        -4.4006   -3.7596  -29.9922 C.3         1 MS7       0.1028
     12 C23        -2.9450   -3.6234  -29.7179 C.ar        1 MS7      -0.0131
     13 C24        -2.2762   -2.3998  -29.9092 C.ar        1 MS7      -0.0578
     14 C26        -0.8637   -2.3311  -29.8414 C.ar        1 MS7      -0.0685
     15 C28        -0.1169   -3.4949  -29.5861 C.ar        1 MS7      -0.0687
     16 C30        -0.7758   -4.7203  -29.3754 C.ar        1 MS7      -0.0685
     17 C32        -2.1777   -4.7820  -29.4242 C.ar        1 MS7      -0.0578
     18 C34        -4.0375  -11.0537  -31.7253 C.2         1 MS7       0.2261
     19 O35        -4.7923  -10.9068  -30.7809 O.2         1 MS7      -0.3907
     20 N36        -4.4087  -11.7610  -32.7925 N.am        1 MS7      -0.2853
     21 C38        -5.7406  -12.1710  -33.0814 C.3         1 MS7       0.0197
     22 H1         -0.8116  -11.4394  -31.7849 H           1 MS7       0.2017
     23 H2         -1.8597  -11.8748  -32.9983 H           1 MS7       0.2017
     24 H3         -2.0278  -12.5223  -31.4668 H           1 MS7       0.2017
     25 H4         -2.4279  -10.3023  -30.5907 H           1 MS7       0.1120
     26 H5         -2.5802   -9.5771  -33.5635 H           1 MS7       0.0486
     27 H6         -1.2597   -9.2068  -32.4942 H           1 MS7       0.0486
     28 H7         -1.3880   -6.8263  -32.9950 H           1 MS7       0.0530
     29 H8         -2.3990   -4.6895  -32.5684 H           1 MS7       0.0525
     30 H9         -5.7989   -6.5881  -30.9557 H           1 MS7       0.0525
     31 H10        -4.8417   -8.7565  -31.4587 H           1 MS7       0.0530
     32 H11        -4.8731   -4.4195  -29.2561 H           1 MS7       0.0776
     33 H12        -4.8778   -2.7891  -29.8856 H           1 MS7       0.0776
     34 H13        -2.7943   -1.5502  -30.1411 H           1 MS7       0.0557
     35 H14        -0.3859   -1.4432  -30.0059 H           1 MS7       0.0599
     36 H15         0.9056   -3.4557  -29.5695 H           1 MS7       0.0559
     37 H16        -0.2357   -5.5758  -29.2295 H           1 MS7       0.0599
     38 H17        -2.6386   -5.6857  -29.3109 H           1 MS7       0.0557
     39 H18        -3.7304  -11.9480  -33.4622 H           1 MS7       0.1849
     40 H19        -5.7323  -12.8274  -33.9495 H           1 MS7       0.0484
     41 H20        -6.3414  -11.2892  -33.3136 H           1 MS7       0.0484
     42 H21        -6.1860  -12.7047  -32.2393 H           1 MS7       0.0484
@<TRIPOS>BOND
     1     1     2   1
     2     2     3   1
     3     2    18   1
     4     3     4   1
     5     4     5  ar
     6     4     9  ar
     7     5     6  ar
     8     6     7  ar
     9     7     8  ar
    10     7    10   1
    11     8     9  ar
    12    10    11   1
    13    11    12   1
    14    12    13  ar
    15    12    17  ar
    16    13    14  ar
    17    14    15  ar
    18    15    16  ar
    19    16    17  ar
    20    18    19   2
    21    18    20  am
    22    20    21   1
    23     1    22   1
    24     1    23   1
    25     1    24   1
    26     2    25   1
    27     3    26   1
    28     3    27   1
    29     5    28   1
    30     6    29   1
    31     8    30   1
    32     9    31   1
    33    11    32   1
    34    11    33   1
    35    13    34   1
    36    14    35   1
    37    15    36   1
    38    16    37   1
    39    17    38   1
    40    20    39   1
    41    21    40   1
    42    21    41   1
    43    21    42   1
@<TRIPOS>SUBSTRUCTURE
     1  MS7      2

