@<TRIPOS>MOLECULE
3mss_ligand_021
    42    43
SMALL
GAST_HUCK
****
This file was generated by PARSER (from files_GN.cpp)

@<TRIPOS>ATOM
      1 N1        -11.3507   -0.6984  -29.6421 N.4         1 MS7       0.2392
      2 C4        -10.2787   -1.6930  -29.4587 C.3         1 MS7       0.0728
      3 C6         -8.9881   -1.2370  -30.2066 C.3         1 MS7       0.0365
      4 C9         -9.1126   -1.3691  -31.6873 C.ar        1 MS7      -0.0460
      5 C10        -9.3052   -0.2454  -32.5269 C.ar        1 MS7      -0.0684
      6 C12        -9.4632   -0.4122  -33.9184 C.ar        1 MS7      -0.0393
      7 C14        -9.4204   -1.6992  -34.4924 C.ar        1 MS7       0.0868
      8 C15        -9.2253   -2.8158  -33.6599 C.ar        1 MS7      -0.0393
      9 C17        -9.0613   -2.6539  -32.2751 C.ar        1 MS7      -0.0684
     10 O19        -9.6555   -1.9030  -35.8251 O.3         1 MS7      -0.3099
     11 C20        -8.4821   -2.0185  -36.6571 C.3         1 MS7       0.1028
     12 C23        -8.6874   -3.1150  -37.6422 C.ar        1 MS7      -0.0131
     13 C24        -8.7209   -2.8712  -39.0356 C.ar        1 MS7      -0.0578
     14 C26        -8.9325   -3.9265  -39.9465 C.ar        1 MS7      -0.0685
     15 C28        -9.0924   -5.2435  -39.4793 C.ar        1 MS7      -0.0687
     16 C30        -9.0419   -5.5066  -38.1008 C.ar        1 MS7      -0.0685
     17 C32        -8.8467   -4.4479  -37.1888 C.ar        1 MS7      -0.0578
     18 C34       -10.0606   -1.9426  -28.0379 C.2         1 MS7       0.2261
     19 O35       -10.0723   -3.1023  -27.6340 O.2         1 MS7      -0.3907
     20 N36        -9.8409   -0.9408  -27.1924 N.am        1 MS7      -0.2853
     21 C38        -9.5908   -1.0977  -25.7964 C.3         1 MS7       0.0197
     22 H1        -11.5569   -0.5994  -30.6403 H           1 MS7       0.2017
     23 H2        -11.0493    0.2058  -29.2702 H           1 MS7       0.2017
     24 H3        -12.1984   -1.0035  -29.1566 H           1 MS7       0.2017
     25 H4        -10.6437   -2.6166  -29.9166 H           1 MS7       0.1120
     26 H5         -8.1398   -1.8466  -29.8873 H           1 MS7       0.0486
     27 H6         -8.7546   -0.2052  -29.9217 H           1 MS7       0.0486
     28 H7         -9.3567    0.6964  -32.1270 H           1 MS7       0.0530
     29 H8         -9.6316    0.4067  -34.5098 H           1 MS7       0.0525
     30 H9         -9.2104   -3.7544  -34.0566 H           1 MS7       0.0525
     31 H10        -8.9269   -3.4810  -31.6912 H           1 MS7       0.0530
     32 H11        -7.5663   -2.2405  -36.1019 H           1 MS7       0.0776
     33 H12        -8.3369   -1.0571  -37.1602 H           1 MS7       0.0776
     34 H13        -8.6014   -1.9194  -39.4000 H           1 MS7       0.0557
     35 H14        -8.9612   -3.7353  -40.9490 H           1 MS7       0.0599
     36 H15        -9.2377   -6.0049  -40.1413 H           1 MS7       0.0559
     37 H16        -9.1487   -6.4647  -37.7568 H           1 MS7       0.0599
     38 H17        -8.8088   -4.6601  -36.1834 H           1 MS7       0.0557
     39 H18        -9.8505   -0.0337  -27.5423 H           1 MS7       0.1849
     40 H19        -9.4914   -0.1150  -25.3378 H           1 MS7       0.0484
     41 H20        -8.6639   -1.6524  -25.6343 H           1 MS7       0.0484
     42 H21       -10.4164   -1.6255  -25.3129 H           1 MS7       0.0484
@<TRIPOS>BOND
     1     1     2   1
     2     2     3   1
     3     2    18   1
     4     3     4   1
     5     4     5  ar
     6     4     9  ar
     7     5     6  ar
     8     6     7  ar
     9     7     8  ar
    10     7    10   1
    11     8     9  ar
    12    10    11   1
    13    11    12   1
    14    12    13  ar
    15    12    17  ar
    16    13    14  ar
    17    14    15  ar
    18    15    16  ar
    19    16    17  ar
    20    18    19   2
    21    18    20  am
    22    20    21   1
    23     1    22   1
    24     1    23   1
    25     1    24   1
    26     2    25   1
    27     3    26   1
    28     3    27   1
    29     5    28   1
    30     6    29   1
    31     8    30   1
    32     9    31   1
    33    11    32   1
    34    11    33   1
    35    13    34   1
    36    14    35   1
    37    15    36   1
    38    16    37   1
    39    17    38   1
    40    20    39   1
    41    21    40   1
    42    21    41   1
    43    21    42   1
@<TRIPOS>SUBSTRUCTURE
     1  MS7      2

