@<TRIPOS>MOLECULE
3mss_ligand_006
    42    43
SMALL
GAST_HUCK
****
This file was generated by PARSER (from files_GN.cpp)

@<TRIPOS>ATOM
      1 N1        -11.5793   -0.4417  -29.5522 N.4         1 MS7       0.2392
      2 C4        -10.5156   -1.4523  -29.4301 C.3         1 MS7       0.0728
      3 C6         -9.2163   -0.9602  -30.1494 C.3         1 MS7       0.0365
      4 C9         -8.1828   -2.0000  -30.4624 C.ar        1 MS7      -0.0460
      5 C10        -7.4465   -1.9209  -31.6678 C.ar        1 MS7      -0.0684
      6 C12        -6.4356   -2.8531  -31.9606 C.ar        1 MS7      -0.0393
      7 C14        -6.1242   -3.8961  -31.0668 C.ar        1 MS7       0.0868
      8 C15        -6.8281   -3.9664  -29.8462 C.ar        1 MS7      -0.0393
      9 C17        -7.8351   -3.0327  -29.5540 C.ar        1 MS7      -0.0684
     10 O19        -5.0599   -4.7055  -31.3804 O.3         1 MS7      -0.3099
     11 C20        -5.1192   -6.1203  -31.0992 C.3         1 MS7       0.1028
     12 C23        -3.9548   -6.8556  -31.6636 C.ar        1 MS7      -0.0131
     13 C24        -2.7556   -6.1966  -32.0328 C.ar        1 MS7      -0.0578
     14 C26        -1.6795   -6.9111  -32.5907 C.ar        1 MS7      -0.0685
     15 C28        -1.7755   -8.3013  -32.7743 C.ar        1 MS7      -0.0687
     16 C30        -2.9444   -8.9774  -32.3839 C.ar        1 MS7      -0.0685
     17 C32        -4.0207   -8.2611  -31.8245 C.ar        1 MS7      -0.0578
     18 C34       -10.3199   -1.7580  -28.0160 C.2         1 MS7       0.2261
     19 O35       -10.4609   -2.9135  -27.6321 O.2         1 MS7      -0.3907
     20 N36        -9.9124   -0.8131  -27.1765 N.am        1 MS7      -0.2853
     21 C38        -9.5280   -1.0240  -25.8212 C.3         1 MS7       0.0197
     22 H1        -11.7943   -0.2933  -30.5408 H           1 MS7       0.2017
     23 H2        -11.2640    0.4389  -29.1405 H           1 MS7       0.2017
     24 H3        -12.4215   -0.7642  -29.0715 H           1 MS7       0.2017
     25 H4        -10.8752   -2.3385  -29.9628 H           1 MS7       0.1120
     26 H5         -8.7380   -0.1737  -29.5607 H           1 MS7       0.0486
     27 H6         -9.5262   -0.4808  -31.0842 H           1 MS7       0.0486
     28 H7         -7.6196   -1.1638  -32.3294 H           1 MS7       0.0530
     29 H8         -5.9080   -2.7567  -32.8267 H           1 MS7       0.0525
     30 H9         -6.6038   -4.6768  -29.1431 H           1 MS7       0.0525
     31 H10        -8.2871   -3.1168  -28.6460 H           1 MS7       0.0530
     32 H11        -6.0432   -6.5278  -31.5216 H           1 MS7       0.0776
     33 H12        -5.1199   -6.2888  -30.0204 H           1 MS7       0.0776
     34 H13        -2.6524   -5.1884  -31.8993 H           1 MS7       0.0557
     35 H14        -0.8282   -6.4165  -32.8656 H           1 MS7       0.0599
     36 H15        -0.9969   -8.8191  -33.1877 H           1 MS7       0.0559
     37 H16        -3.0129   -9.9906  -32.5103 H           1 MS7       0.0599
     38 H17        -4.8619   -8.7746  -31.5473 H           1 MS7       0.0557
     39 H18        -9.8271    0.0903  -27.5216 H           1 MS7       0.1849
     40 H19        -9.2659   -0.0650  -25.3744 H           1 MS7       0.0484
     41 H20        -8.6554   -1.6796  -25.7690 H           1 MS7       0.0484
     42 H21       -10.3503   -1.4635  -25.2545 H           1 MS7       0.0484
@<TRIPOS>BOND
     1     1     2   1
     2     2     3   1
     3     2    18   1
     4     3     4   1
     5     4     5  ar
     6     4     9  ar
     7     5     6  ar
     8     6     7  ar
     9     7     8  ar
    10     7    10   1
    11     8     9  ar
    12    10    11   1
    13    11    12   1
    14    12    13  ar
    15    12    17  ar
    16    13    14  ar
    17    14    15  ar
    18    15    16  ar
    19    16    17  ar
    20    18    19   2
    21    18    20  am
    22    20    21   1
    23     1    22   1
    24     1    23   1
    25     1    24   1
    26     2    25   1
    27     3    26   1
    28     3    27   1
    29     5    28   1
    30     6    29   1
    31     8    30   1
    32     9    31   1
    33    11    32   1
    34    11    33   1
    35    13    34   1
    36    14    35   1
    37    15    36   1
    38    16    37   1
    39    17    38   1
    40    20    39   1
    41    21    40   1
    42    21    41   1
    43    21    42   1
@<TRIPOS>SUBSTRUCTURE
     1  MS7      2

