@<TRIPOS>MOLECULE
3mss_ligand_008
    42    43
SMALL
GAST_HUCK
****
This file was generated by PARSER (from files_GN.cpp)

@<TRIPOS>ATOM
      1 N1         -9.8967   -0.9727  -25.3337 N.4         1 MS7       0.2392
      2 C4        -10.6187   -1.0602  -26.6162 C.3         1 MS7       0.0728
      3 C6        -10.7432   -2.5474  -27.0961 C.3         1 MS7       0.0365
      4 C9         -9.8271   -2.8617  -28.2250 C.ar        1 MS7      -0.0460
      5 C10       -10.1788   -2.5093  -29.5487 C.ar        1 MS7      -0.0684
      6 C12        -9.3046   -2.7783  -30.6175 C.ar        1 MS7      -0.0393
      7 C14        -8.0599   -3.3965  -30.3818 C.ar        1 MS7       0.0868
      8 C15        -7.7155   -3.7688  -29.0652 C.ar        1 MS7      -0.0393
      9 C17        -8.5818   -3.4856  -27.9962 C.ar        1 MS7      -0.0684
     10 O19        -7.2467   -3.6718  -31.4513 O.3         1 MS7      -0.3099
     11 C20        -6.0828   -2.8272  -31.6017 C.3         1 MS7       0.1028
     12 C23        -4.8809   -3.2865  -30.8521 C.ar        1 MS7      -0.0131
     13 C24        -4.6936   -4.6499  -30.5158 C.ar        1 MS7      -0.0578
     14 C26        -3.5799   -5.0581  -29.7589 C.ar        1 MS7      -0.0685
     15 C28        -2.5992   -4.1213  -29.3887 C.ar        1 MS7      -0.0687
     16 C30        -2.7370   -2.7751  -29.7708 C.ar        1 MS7      -0.0685
     17 C32        -3.8720   -2.3609  -30.4928 C.ar        1 MS7      -0.0578
     18 C34       -11.9211   -0.4227  -26.4897 C.2         1 MS7       0.2261
     19 O35       -12.6955   -0.8294  -25.6303 O.2         1 MS7      -0.3907
     20 N36       -12.2901    0.5101  -27.3587 N.am        1 MS7      -0.2853
     21 C38       -13.5764    1.1175  -27.4068 C.3         1 MS7       0.0197
     22 H1         -8.9528   -1.3513  -25.4422 H           1 MS7       0.2017
     23 H2        -10.3965   -1.5099  -24.6209 H           1 MS7       0.2017
     24 H3         -9.8364    0.0050  -25.0405 H           1 MS7       0.2017
     25 H4        -10.0115   -0.4871  -27.3254 H           1 MS7       0.1120
     26 H5        -11.7613   -2.7841  -27.4225 H           1 MS7       0.0486
     27 H6        -10.5519   -3.2222  -26.2570 H           1 MS7       0.0486
     28 H7        -11.0759   -2.0559  -29.7414 H           1 MS7       0.0530
     29 H8         -9.5782   -2.5234  -31.5693 H           1 MS7       0.0525
     30 H9         -6.8336   -4.2425  -28.8726 H           1 MS7       0.0525
     31 H10        -8.2913   -3.7243  -27.0473 H           1 MS7       0.0530
     32 H11        -6.3235   -1.7875  -31.3508 H           1 MS7       0.0776
     33 H12        -5.8224   -2.8380  -32.6608 H           1 MS7       0.0776
     34 H13        -5.3844   -5.3523  -30.7923 H           1 MS7       0.0557
     35 H14        -3.4808   -6.0372  -29.4812 H           1 MS7       0.0599
     36 H15        -1.7861   -4.4194  -28.8447 H           1 MS7       0.0559
     37 H16        -2.0145   -2.0967  -29.5193 H           1 MS7       0.0599
     38 H17        -3.9561   -1.3759  -30.7568 H           1 MS7       0.0557
     39 H18       -11.6435    0.7844  -28.0310 H           1 MS7       0.1849
     40 H19       -13.6144    1.8041  -28.2524 H           1 MS7       0.0484
     41 H20       -13.7654    1.6745  -26.4875 H           1 MS7       0.0484
     42 H21       -14.3505    0.3590  -27.5400 H           1 MS7       0.0484
@<TRIPOS>BOND
     1     1     2   1
     2     2     3   1
     3     2    18   1
     4     3     4   1
     5     4     5  ar
     6     4     9  ar
     7     5     6  ar
     8     6     7  ar
     9     7     8  ar
    10     7    10   1
    11     8     9  ar
    12    10    11   1
    13    11    12   1
    14    12    13  ar
    15    12    17  ar
    16    13    14  ar
    17    14    15  ar
    18    15    16  ar
    19    16    17  ar
    20    18    19   2
    21    18    20  am
    22    20    21   1
    23     1    22   1
    24     1    23   1
    25     1    24   1
    26     2    25   1
    27     3    26   1
    28     3    27   1
    29     5    28   1
    30     6    29   1
    31     8    30   1
    32     9    31   1
    33    11    32   1
    34    11    33   1
    35    13    34   1
    36    14    35   1
    37    15    36   1
    38    16    37   1
    39    17    38   1
    40    20    39   1
    41    21    40   1
    42    21    41   1
    43    21    42   1
@<TRIPOS>SUBSTRUCTURE
     1  MS7      2

