@<TRIPOS>MOLECULE
3mss_ligand_023
    42    43
SMALL
GAST_HUCK
****
This file was generated by PARSER (from files_GN.cpp)

@<TRIPOS>ATOM
      1 N1        -11.6962   -0.5956  -29.2324 N.4         1 MS7       0.2392
      2 C4        -10.5625   -1.5338  -29.2494 C.3         1 MS7       0.0728
      3 C6         -9.3419   -0.9848  -30.0567 C.3         1 MS7       0.0365
      4 C9         -9.6869   -0.5082  -31.4225 C.ar        1 MS7      -0.0460
      5 C10       -10.2816    0.7613  -31.6013 C.ar        1 MS7      -0.0684
      6 C12       -10.6200    1.2237  -32.8837 C.ar        1 MS7      -0.0393
      7 C14       -10.3394    0.4381  -34.0182 C.ar        1 MS7       0.0868
      8 C15        -9.7490   -0.8337  -33.8540 C.ar        1 MS7      -0.0393
      9 C17        -9.4212   -1.2989  -32.5673 C.ar        1 MS7      -0.0684
     10 O19       -10.7121    0.9092  -35.2528 O.3         1 MS7      -0.3099
     11 C20        -9.6825    1.5927  -35.9976 C.3         1 MS7       0.1028
     12 C23        -9.2082    2.8555  -35.3622 C.ar        1 MS7      -0.0131
     13 C24       -10.1355    3.8549  -34.9903 C.ar        1 MS7      -0.0578
     14 C26        -9.7113    5.0182  -34.3187 C.ar        1 MS7      -0.0685
     15 C28        -8.3483    5.1987  -34.0208 C.ar        1 MS7      -0.0687
     16 C30        -7.4095    4.2250  -34.4085 C.ar        1 MS7      -0.0685
     17 C32        -7.8361    3.0613  -35.0724 C.ar        1 MS7      -0.0578
     18 C34       -10.1991   -1.8537  -27.8713 C.2         1 MS7       0.2261
     19 O35       -10.2185   -3.0250  -27.5029 O.2         1 MS7      -0.3907
     20 N36        -9.8987   -0.8774  -27.0240 N.am        1 MS7      -0.2853
     21 C38        -9.5758   -1.0475  -25.6476 C.3         1 MS7       0.0197
     22 H1        -12.0911   -0.5217  -30.1711 H           1 MS7       0.2017
     23 H2        -11.3762    0.3260  -28.9266 H           1 MS7       0.2017
     24 H3        -12.4193   -0.9368  -28.5945 H           1 MS7       0.2017
     25 H4        -10.9125   -2.4402  -29.7558 H           1 MS7       0.1120
     26 H5         -8.5858   -1.7733  -30.1228 H           1 MS7       0.0486
     27 H6         -8.8748   -0.1612  -29.5099 H           1 MS7       0.0486
     28 H7        -10.4863    1.3574  -30.7992 H           1 MS7       0.0530
     29 H8        -11.0671    2.1349  -32.9874 H           1 MS7       0.0525
     30 H9         -9.5587   -1.4188  -34.6702 H           1 MS7       0.0525
     31 H10        -8.9948   -2.2227  -32.4686 H           1 MS7       0.0530
     32 H11       -10.1102    1.8366  -36.9728 H           1 MS7       0.0776
     33 H12        -8.8541    0.9053  -36.1780 H           1 MS7       0.0776
     34 H13       -11.1351    3.7285  -35.1734 H           1 MS7       0.0557
     35 H14       -10.3935    5.7209  -34.0275 H           1 MS7       0.0599
     36 H15        -8.0383    6.0390  -33.5205 H           1 MS7       0.0559
     37 H16        -6.4194    4.3523  -34.1819 H           1 MS7       0.0599
     38 H17        -7.1436    2.3532  -35.3193 H           1 MS7       0.0557
     39 H18        -9.9110    0.0316  -27.3669 H           1 MS7       0.1849
     40 H19        -9.4294   -0.0671  -25.2008 H           1 MS7       0.0484
     41 H20        -8.6556   -1.6240  -25.5410 H           1 MS7       0.0484
     42 H21       -10.3887   -1.5528  -25.1230 H           1 MS7       0.0484
@<TRIPOS>BOND
     1     1     2   1
     2     2     3   1
     3     2    18   1
     4     3     4   1
     5     4     5  ar
     6     4     9  ar
     7     5     6  ar
     8     6     7  ar
     9     7     8  ar
    10     7    10   1
    11     8     9  ar
    12    10    11   1
    13    11    12   1
    14    12    13  ar
    15    12    17  ar
    16    13    14  ar
    17    14    15  ar
    18    15    16  ar
    19    16    17  ar
    20    18    19   2
    21    18    20  am
    22    20    21   1
    23     1    22   1
    24     1    23   1
    25     1    24   1
    26     2    25   1
    27     3    26   1
    28     3    27   1
    29     5    28   1
    30     6    29   1
    31     8    30   1
    32     9    31   1
    33    11    32   1
    34    11    33   1
    35    13    34   1
    36    14    35   1
    37    15    36   1
    38    16    37   1
    39    17    38   1
    40    20    39   1
    41    21    40   1
    42    21    41   1
    43    21    42   1
@<TRIPOS>SUBSTRUCTURE
     1  MS7      2

