@<TRIPOS>MOLECULE
3mss_ligand_003
    42    43
SMALL
GAST_HUCK
****
This file was generated by PARSER (from files_GN.cpp)

@<TRIPOS>ATOM
      1 N1         -3.7804  -11.9057  -29.9856 N.4         1 MS7       0.2392
      2 C4         -4.9140  -10.9637  -29.9636 C.3         1 MS7       0.0728
      3 C6         -5.1005  -10.3490  -31.3924 C.3         1 MS7       0.0365
      4 C9         -4.0883   -9.3155  -31.7549 C.ar        1 MS7      -0.0460
      5 C10        -2.8124   -9.6629  -32.2657 C.ar        1 MS7      -0.0684
      6 C12        -1.8450   -8.6769  -32.5285 C.ar        1 MS7      -0.0393
      7 C14        -2.1310   -7.3143  -32.2872 C.ar        1 MS7       0.0868
      8 C15        -3.4247   -6.9562  -31.8565 C.ar        1 MS7      -0.0393
      9 C17        -4.3827   -7.9382  -31.5805 C.ar        1 MS7      -0.0684
     10 O19        -1.1748   -6.3512  -32.4793 O.3         1 MS7      -0.3099
     11 C20        -0.4608   -5.9227  -31.2908 C.3         1 MS7       0.1028
     12 C23        -1.0034   -4.6532  -30.7358 C.ar        1 MS7      -0.0131
     13 C24        -0.3508   -3.4145  -30.9458 C.ar        1 MS7      -0.0578
     14 C26        -0.9380   -2.2073  -30.5234 C.ar        1 MS7      -0.0685
     15 C28        -2.1875   -2.2215  -29.8698 C.ar        1 MS7      -0.0687
     16 C30        -2.8121   -3.4457  -29.5968 C.ar        1 MS7      -0.0685
     17 C32        -2.2243   -4.6546  -30.0158 C.ar        1 MS7      -0.0578
     18 C34        -6.0804  -11.6461  -29.4056 C.2         1 MS7       0.2261
     19 O35        -7.1416  -11.6872  -30.0200 O.2         1 MS7      -0.3907
     20 N36        -6.0003  -12.2032  -28.1984 N.am        1 MS7      -0.2853
     21 C38        -7.0596  -12.8799  -27.5276 C.3         1 MS7       0.0197
     22 H1         -2.9369  -11.4256  -30.3010 H           1 MS7       0.2017
     23 H2         -3.9870  -12.6831  -30.6184 H           1 MS7       0.2017
     24 H3         -3.6146  -12.2652  -29.0454 H           1 MS7       0.2017
     25 H4         -4.6571  -10.1503  -29.2732 H           1 MS7       0.1120
     26 H5         -6.0949   -9.8989  -31.4496 H           1 MS7       0.0486
     27 H6         -5.0865  -11.1481  -32.1405 H           1 MS7       0.0486
     28 H7         -2.5781  -10.6415  -32.4391 H           1 MS7       0.0530
     29 H8         -0.9231   -8.9469  -32.8719 H           1 MS7       0.0525
     30 H9         -3.6589   -5.9689  -31.7214 H           1 MS7       0.0525
     31 H10        -5.2945   -7.6445  -31.2177 H           1 MS7       0.0530
     32 H11         0.5720   -5.7623  -31.6056 H           1 MS7       0.0776
     33 H12        -0.4252   -6.6851  -30.5043 H           1 MS7       0.0776
     34 H13         0.5370   -3.3769  -31.4539 H           1 MS7       0.0557
     35 H14        -0.4698   -1.3209  -30.7027 H           1 MS7       0.0599
     36 H15        -2.6395   -1.3442  -29.6092 H           1 MS7       0.0559
     37 H16        -3.7217   -3.4693  -29.1291 H           1 MS7       0.0599
     38 H17        -2.7030   -5.5331  -29.8046 H           1 MS7       0.0557
     39 H18        -5.1420  -12.1615  -27.7425 H           1 MS7       0.1849
     40 H19        -6.6820  -13.2834  -26.5860 H           1 MS7       0.0484
     41 H20        -7.4360  -13.7056  -28.1368 H           1 MS7       0.0484
     42 H21        -7.8759  -12.1879  -27.3074 H           1 MS7       0.0484
@<TRIPOS>BOND
     1     1     2   1
     2     2     3   1
     3     2    18   1
     4     3     4   1
     5     4     5  ar
     6     4     9  ar
     7     5     6  ar
     8     6     7  ar
     9     7     8  ar
    10     7    10   1
    11     8     9  ar
    12    10    11   1
    13    11    12   1
    14    12    13  ar
    15    12    17  ar
    16    13    14  ar
    17    14    15  ar
    18    15    16  ar
    19    16    17  ar
    20    18    19   2
    21    18    20  am
    22    20    21   1
    23     1    22   1
    24     1    23   1
    25     1    24   1
    26     2    25   1
    27     3    26   1
    28     3    27   1
    29     5    28   1
    30     6    29   1
    31     8    30   1
    32     9    31   1
    33    11    32   1
    34    11    33   1
    35    13    34   1
    36    14    35   1
    37    15    36   1
    38    16    37   1
    39    17    38   1
    40    20    39   1
    41    21    40   1
    42    21    41   1
    43    21    42   1
@<TRIPOS>SUBSTRUCTURE
     1  MS7      2

