@<TRIPOS>MOLECULE
3mss_ligand_014
    42    43
SMALL
GAST_HUCK
****
This file was generated by PARSER (from files_GN.cpp)

@<TRIPOS>ATOM
      1 N1         -4.2711   -8.9259  -30.6864 N.4         1 MS7       0.2392
      2 C4         -3.5957   -9.6769  -31.7605 C.3         1 MS7       0.0728
      3 C6         -2.7828   -8.7042  -32.6785 C.3         1 MS7       0.0365
      4 C9         -1.9411   -7.6580  -32.0192 C.ar        1 MS7      -0.0460
      5 C10        -1.9742   -6.3279  -32.4947 C.ar        1 MS7      -0.0684
      6 C12        -1.2235   -5.3170  -31.8747 C.ar        1 MS7      -0.0393
      7 C14        -0.4450   -5.6044  -30.7349 C.ar        1 MS7       0.0868
      8 C15        -0.3711   -6.9328  -30.2716 C.ar        1 MS7      -0.0393
      9 C17        -1.0883   -7.9473  -30.9308 C.ar        1 MS7      -0.0684
     10 O19         0.1671   -4.5829  -30.0659 O.3         1 MS7      -0.3099
     11 C20        -0.5876   -4.0188  -28.9664 C.3         1 MS7       0.1028
     12 C23        -1.9103   -3.4657  -29.3632 C.ar        1 MS7      -0.0131
     13 C24        -3.0637   -4.2887  -29.3244 C.ar        1 MS7      -0.0578
     14 C26        -4.2934   -3.8355  -29.8395 C.ar        1 MS7      -0.0685
     15 C28        -4.3845   -2.5528  -30.4057 C.ar        1 MS7      -0.0687
     16 C30        -3.2530   -1.7187  -30.4445 C.ar        1 MS7      -0.0685
     17 C32        -2.0190   -2.1770  -29.9376 C.ar        1 MS7      -0.0578
     18 C34        -2.8133  -10.8045  -31.2688 C.2         1 MS7       0.2261
     19 O35        -2.6272  -10.9613  -30.0676 O.2         1 MS7      -0.3907
     20 N36        -2.2935  -11.6579  -32.1441 N.am        1 MS7      -0.2853
     21 C38        -1.4745  -12.7775  -31.8354 C.3         1 MS7       0.0197
     22 H1         -4.8693   -8.1988  -31.0907 H           1 MS7       0.2017
     23 H2         -3.5785   -8.4865  -30.0785 H           1 MS7       0.2017
     24 H3         -4.8470   -9.5612  -30.1303 H           1 MS7       0.2017
     25 H4         -4.3978  -10.1114  -32.3641 H           1 MS7       0.1120
     26 H5         -3.5186   -8.2069  -33.3126 H           1 MS7       0.0486
     27 H6         -2.1364   -9.2659  -33.3525 H           1 MS7       0.0486
     28 H7         -2.5479   -6.0734  -33.3037 H           1 MS7       0.0530
     29 H8         -1.2812   -4.3589  -32.2194 H           1 MS7       0.0525
     30 H9          0.2039   -7.1623  -29.4623 H           1 MS7       0.0525
     31 H10        -0.9908   -8.9003  -30.5901 H           1 MS7       0.0530
     32 H11         0.0123   -3.2195  -28.5274 H           1 MS7       0.0776
     33 H12        -0.7062   -4.7739  -28.1892 H           1 MS7       0.0776
     34 H13        -3.0082   -5.2371  -28.9435 H           1 MS7       0.0557
     35 H14        -5.1138   -4.4476  -29.8086 H           1 MS7       0.0599
     36 H15        -5.2762   -2.2279  -30.7851 H           1 MS7       0.0559
     37 H16        -3.3264   -0.7845  -30.8526 H           1 MS7       0.0599
     38 H17        -1.2025   -1.5647  -29.9943 H           1 MS7       0.0557
     39 H18        -2.4771  -11.5036  -33.0839 H           1 MS7       0.1849
     40 H19        -1.1934  -13.2698  -32.7653 H           1 MS7       0.0484
     41 H20        -2.0157  -13.4892  -31.2107 H           1 MS7       0.0484
     42 H21        -0.5673  -12.4592  -31.3201 H           1 MS7       0.0484
@<TRIPOS>BOND
     1     1     2   1
     2     2     3   1
     3     2    18   1
     4     3     4   1
     5     4     5  ar
     6     4     9  ar
     7     5     6  ar
     8     6     7  ar
     9     7     8  ar
    10     7    10   1
    11     8     9  ar
    12    10    11   1
    13    11    12   1
    14    12    13  ar
    15    12    17  ar
    16    13    14  ar
    17    14    15  ar
    18    15    16  ar
    19    16    17  ar
    20    18    19   2
    21    18    20  am
    22    20    21   1
    23     1    22   1
    24     1    23   1
    25     1    24   1
    26     2    25   1
    27     3    26   1
    28     3    27   1
    29     5    28   1
    30     6    29   1
    31     8    30   1
    32     9    31   1
    33    11    32   1
    34    11    33   1
    35    13    34   1
    36    14    35   1
    37    15    36   1
    38    16    37   1
    39    17    38   1
    40    20    39   1
    41    21    40   1
    42    21    41   1
    43    21    42   1
@<TRIPOS>SUBSTRUCTURE
     1  MS7      2

