@<TRIPOS>MOLECULE
3mss_ligand_018
    42    43
SMALL
GAST_HUCK
****
This file was generated by PARSER (from files_GN.cpp)

@<TRIPOS>ATOM
      1 N1         -9.6065    0.2302  -32.3909 N.4         1 MS7       0.2392
      2 C4        -10.1929   -0.8581  -31.5918 C.3         1 MS7       0.0728
      3 C6         -9.3051   -1.1664  -30.3481 C.3         1 MS7       0.0365
      4 C9         -8.0630   -1.9207  -30.6718 C.ar        1 MS7      -0.0460
      5 C10        -6.7914   -1.2993  -30.6474 C.ar        1 MS7      -0.0684
      6 C12        -5.6259   -2.0365  -30.9165 C.ar        1 MS7      -0.0393
      7 C14        -5.7089   -3.4161  -31.1966 C.ar        1 MS7       0.0868
      8 C15        -6.9689   -4.0408  -31.2424 C.ar        1 MS7      -0.0393
      9 C17        -8.1349   -3.3001  -30.9831 C.ar        1 MS7      -0.0684
     10 O19        -4.5637   -4.1267  -31.4375 O.3         1 MS7      -0.3099
     11 C20        -3.9964   -4.7166  -30.2457 C.3         1 MS7       0.1028
     12 C23        -2.5447   -4.9469  -30.4361 C.ar        1 MS7      -0.0131
     13 C24        -1.7239   -3.8936  -30.9045 C.ar        1 MS7      -0.0578
     14 C26        -0.3314   -4.0568  -30.9979 C.ar        1 MS7      -0.0685
     15 C28         0.2648   -5.2663  -30.6011 C.ar        1 MS7      -0.0687
     16 C30        -0.5386   -6.3238  -30.1383 C.ar        1 MS7      -0.0685
     17 C32        -1.9361   -6.1711  -30.0698 C.ar        1 MS7      -0.0578
     18 C34       -11.5660   -0.5093  -31.2364 C.2         1 MS7       0.2261
     19 O35       -12.4834   -1.1783  -31.6979 O.2         1 MS7      -0.3907
     20 N36       -11.8163    0.4971  -30.4109 N.am        1 MS7      -0.2853
     21 C38       -13.1127    0.8967  -29.9675 C.3         1 MS7       0.0197
     22 H1         -8.6457   -0.0105  -32.6440 H           1 MS7       0.2017
     23 H2         -9.6058    1.0973  -31.8498 H           1 MS7       0.2017
     24 H3        -10.1540    0.3656  -33.2444 H           1 MS7       0.2017
     25 H4        -10.2085   -1.7437  -32.2351 H           1 MS7       0.1120
     26 H5         -9.8783   -1.7587  -29.6293 H           1 MS7       0.0486
     27 H6         -9.0507   -0.2277  -29.8472 H           1 MS7       0.0486
     28 H7         -6.7084   -0.3055  -30.4184 H           1 MS7       0.0530
     29 H8         -4.7147   -1.5699  -30.8926 H           1 MS7       0.0525
     30 H9         -7.0320   -5.0402  -31.4549 H           1 MS7       0.0525
     31 H10        -9.0371   -3.7829  -31.0002 H           1 MS7       0.0530
     32 H11        -4.5207   -5.6524  -30.0325 H           1 MS7       0.0776
     33 H12        -4.0967   -4.0651  -29.3690 H           1 MS7       0.0776
     34 H13        -2.1389   -2.9958  -31.1729 H           1 MS7       0.0557
     35 H14         0.2492   -3.2850  -31.3350 H           1 MS7       0.0599
     36 H15         1.2802   -5.3736  -30.6403 H           1 MS7       0.0559
     37 H16        -0.1035   -7.1999  -29.8363 H           1 MS7       0.0599
     38 H17        -2.5053   -6.9469  -29.7214 H           1 MS7       0.0557
     39 H18       -11.0600    0.9913  -30.0575 H           1 MS7       0.1849
     40 H19       -13.0119    1.7232  -29.2628 H           1 MS7       0.0484
     41 H20       -13.6145    0.0682  -29.4632 H           1 MS7       0.0484
     42 H21       -13.7198    1.2276  -30.8127 H           1 MS7       0.0484
@<TRIPOS>BOND
     1     1     2   1
     2     2     3   1
     3     2    18   1
     4     3     4   1
     5     4     5  ar
     6     4     9  ar
     7     5     6  ar
     8     6     7  ar
     9     7     8  ar
    10     7    10   1
    11     8     9  ar
    12    10    11   1
    13    11    12   1
    14    12    13  ar
    15    12    17  ar
    16    13    14  ar
    17    14    15  ar
    18    15    16  ar
    19    16    17  ar
    20    18    19   2
    21    18    20  am
    22    20    21   1
    23     1    22   1
    24     1    23   1
    25     1    24   1
    26     2    25   1
    27     3    26   1
    28     3    27   1
    29     5    28   1
    30     6    29   1
    31     8    30   1
    32     9    31   1
    33    11    32   1
    34    11    33   1
    35    13    34   1
    36    14    35   1
    37    15    36   1
    38    16    37   1
    39    17    38   1
    40    20    39   1
    41    21    40   1
    42    21    41   1
    43    21    42   1
@<TRIPOS>SUBSTRUCTURE
     1  MS7      2

