@<TRIPOS>MOLECULE
3mss_ligand_019
    42    43
SMALL
GAST_HUCK
****
This file was generated by PARSER (from files_GN.cpp)

@<TRIPOS>ATOM
      1 N1         -2.8355   -2.4837  -30.1990 N.4         1 MS7       0.2392
      2 C4         -2.6862   -3.9435  -30.0907 C.3         1 MS7       0.0728
      3 C6         -3.2003   -4.6267  -31.3929 C.3         1 MS7       0.0365
      4 C9         -3.0312   -6.1085  -31.3697 C.ar        1 MS7      -0.0460
      5 C10        -2.0553   -6.7311  -32.1829 C.ar        1 MS7      -0.0684
      6 C12        -1.8416   -8.1189  -32.1112 C.ar        1 MS7      -0.0393
      7 C14        -2.6378   -8.9207  -31.2685 C.ar        1 MS7       0.0868
      8 C15        -3.5866   -8.3036  -30.4283 C.ar        1 MS7      -0.0393
      9 C17        -3.7909   -6.9128  -30.4850 C.ar        1 MS7      -0.0684
     10 O19        -2.4611  -10.2813  -31.2131 O.3         1 MS7      -0.3099
     11 C20        -2.6632  -11.0132  -32.4434 C.3         1 MS7       0.1028
     12 C23        -4.0088  -11.6273  -32.5835 C.ar        1 MS7      -0.0131
     13 C24        -5.1818  -10.8945  -32.2864 C.ar        1 MS7      -0.0578
     14 C26        -6.4555  -11.4702  -32.4504 C.ar        1 MS7      -0.0685
     15 C28        -6.5767  -12.7748  -32.9608 C.ar        1 MS7      -0.0687
     16 C30        -5.4240  -13.5009  -33.3078 C.ar        1 MS7      -0.0685
     17 C32        -4.1508  -12.9329  -33.1159 C.ar        1 MS7      -0.0578
     18 C34        -1.2988   -4.2618  -29.7744 C.2         1 MS7       0.2261
     19 O35        -1.0408   -4.8269  -28.7170 O.2         1 MS7      -0.3907
     20 N36        -0.3333   -3.9751  -30.6378 N.am        1 MS7      -0.2853
     21 C38         1.0526   -4.2556  -30.4625 C.3         1 MS7       0.0197
     22 H1         -3.8181   -2.2534  -30.3612 H           1 MS7       0.2017
     23 H2         -2.2741   -2.1324  -30.9784 H           1 MS7       0.2017
     24 H3         -2.5248   -2.0431  -29.3320 H           1 MS7       0.2017
     25 H4         -3.3370   -4.2566  -29.2656 H           1 MS7       0.1120
     26 H5         -2.6710   -4.1972  -32.2495 H           1 MS7       0.0486
     27 H6         -4.2593   -4.3957  -31.5393 H           1 MS7       0.0486
     28 H7         -1.4823   -6.1714  -32.8198 H           1 MS7       0.0530
     29 H8         -1.1055   -8.5495  -32.6763 H           1 MS7       0.0525
     30 H9         -4.1336   -8.8661  -29.7779 H           1 MS7       0.0525
     31 H10        -4.4952   -6.4878  -29.8743 H           1 MS7       0.0530
     32 H11        -1.9052  -11.7992  -32.4407 H           1 MS7       0.0776
     33 H12        -2.4785  -10.4088  -33.3382 H           1 MS7       0.0776
     34 H13        -5.1234   -9.9280  -31.9651 H           1 MS7       0.0557
     35 H14        -7.2949  -10.9331  -32.2081 H           1 MS7       0.0599
     36 H15        -7.4999  -13.1886  -33.0861 H           1 MS7       0.0559
     37 H16        -5.5104  -14.4389  -33.7038 H           1 MS7       0.0599
     38 H17        -3.3253  -13.4696  -33.3988 H           1 MS7       0.0557
     39 H18        -0.5913   -3.5470  -31.4680 H           1 MS7       0.1849
     40 H19         1.5895   -3.9232  -31.3504 H           1 MS7       0.0484
     41 H20         1.2129   -5.3284  -30.3364 H           1 MS7       0.0484
     42 H21         1.4453   -3.7232  -29.5937 H           1 MS7       0.0484
@<TRIPOS>BOND
     1     1     2   1
     2     2     3   1
     3     2    18   1
     4     3     4   1
     5     4     5  ar
     6     4     9  ar
     7     5     6  ar
     8     6     7  ar
     9     7     8  ar
    10     7    10   1
    11     8     9  ar
    12    10    11   1
    13    11    12   1
    14    12    13  ar
    15    12    17  ar
    16    13    14  ar
    17    14    15  ar
    18    15    16  ar
    19    16    17  ar
    20    18    19   2
    21    18    20  am
    22    20    21   1
    23     1    22   1
    24     1    23   1
    25     1    24   1
    26     2    25   1
    27     3    26   1
    28     3    27   1
    29     5    28   1
    30     6    29   1
    31     8    30   1
    32     9    31   1
    33    11    32   1
    34    11    33   1
    35    13    34   1
    36    14    35   1
    37    15    36   1
    38    16    37   1
    39    17    38   1
    40    20    39   1
    41    21    40   1
    42    21    41   1
    43    21    42   1
@<TRIPOS>SUBSTRUCTURE
     1  MS7      2

