@<TRIPOS>MOLECULE
3mss_ligand_025
    42    43
SMALL
GAST_HUCK
****
This file was generated by PARSER (from files_GN.cpp)

@<TRIPOS>ATOM
      1 N1        -10.1016   -2.8136  -31.7753 N.4         1 MS7       0.2392
      2 C4         -9.0813   -1.7515  -31.7562 C.3         1 MS7       0.0728
      3 C6         -8.0875   -1.9332  -30.5682 C.3         1 MS7       0.0365
      4 C9         -7.1193   -3.0582  -30.7219 C.ar        1 MS7      -0.0460
      5 C10        -5.7905   -2.8086  -31.1410 C.ar        1 MS7      -0.0684
      6 C12        -4.9013   -3.8707  -31.3783 C.ar        1 MS7      -0.0393
      7 C14        -5.3052   -5.2003  -31.1502 C.ar        1 MS7       0.0868
      8 C15        -6.6271   -5.4604  -30.7427 C.ar        1 MS7      -0.0393
      9 C17        -7.5246   -4.3990  -30.5240 C.ar        1 MS7      -0.0684
     10 O19        -4.4489   -6.2424  -31.3935 O.3         1 MS7      -0.3099
     11 C20        -3.6466   -6.7200  -30.2889 C.3         1 MS7       0.1028
     12 C23        -2.4533   -5.8705  -29.9988 C.ar        1 MS7      -0.0131
     13 C24        -1.1439   -6.2792  -30.3558 C.ar        1 MS7      -0.0578
     14 C26        -0.0295   -5.4665  -30.0696 C.ar        1 MS7      -0.0685
     15 C28        -0.2062   -4.2290  -29.4250 C.ar        1 MS7      -0.0687
     16 C30        -1.4962   -3.8147  -29.0535 C.ar        1 MS7      -0.0685
     17 C32        -2.6052   -4.6379  -29.3203 C.ar        1 MS7      -0.0578
     18 C34        -8.4297   -1.6701  -33.0595 C.2         1 MS7       0.2261
     19 O35        -7.9507   -2.6889  -33.5452 O.2         1 MS7      -0.3907
     20 N36        -8.3527   -0.5192  -33.7137 N.am        1 MS7      -0.2853
     21 C38        -7.7317   -0.3478  -34.9839 C.3         1 MS7       0.0197
     22 H1        -10.6060   -2.8201  -30.8862 H           1 MS7       0.2017
     23 H2         -9.6527   -3.7210  -31.9182 H           1 MS7       0.2017
     24 H3        -10.7640   -2.6419  -32.5349 H           1 MS7       0.2017
     25 H4         -9.6273   -0.8217  -31.5652 H           1 MS7       0.1120
     26 H5         -8.6580   -2.0780  -29.6446 H           1 MS7       0.0486
     27 H6         -7.5424   -0.9910  -30.4415 H           1 MS7       0.0486
     28 H7         -5.4742   -1.8536  -31.3188 H           1 MS7       0.0530
     29 H8         -3.9552   -3.6790  -31.7142 H           1 MS7       0.0525
     30 H9         -6.9439   -6.4256  -30.6288 H           1 MS7       0.0525
     31 H10        -8.4854   -4.6175  -30.2507 H           1 MS7       0.0530
     32 H11        -3.3191   -7.7204  -30.5898 H           1 MS7       0.0776
     33 H12        -4.2496   -6.8500  -29.3810 H           1 MS7       0.0776
     34 H13        -0.9900   -7.1737  -30.8257 H           1 MS7       0.0557
     35 H14         0.9103   -5.7684  -30.3348 H           1 MS7       0.0599
     36 H15         0.6020   -3.6336  -29.2234 H           1 MS7       0.0559
     37 H16        -1.6288   -2.9145  -28.5877 H           1 MS7       0.0599
     38 H17        -3.5291   -4.3268  -29.0134 H           1 MS7       0.0557
     39 H18        -8.7352    0.2698  -33.2973 H           1 MS7       0.1849
     40 H19        -7.8066    0.6994  -35.2758 H           1 MS7       0.0484
     41 H20        -8.2303   -0.9608  -35.7374 H           1 MS7       0.0484
     42 H21        -6.6762   -0.6255  -34.9342 H           1 MS7       0.0484
@<TRIPOS>BOND
     1     1     2   1
     2     2     3   1
     3     2    18   1
     4     3     4   1
     5     4     5  ar
     6     4     9  ar
     7     5     6  ar
     8     6     7  ar
     9     7     8  ar
    10     7    10   1
    11     8     9  ar
    12    10    11   1
    13    11    12   1
    14    12    13  ar
    15    12    17  ar
    16    13    14  ar
    17    14    15  ar
    18    15    16  ar
    19    16    17  ar
    20    18    19   2
    21    18    20  am
    22    20    21   1
    23     1    22   1
    24     1    23   1
    25     1    24   1
    26     2    25   1
    27     3    26   1
    28     3    27   1
    29     5    28   1
    30     6    29   1
    31     8    30   1
    32     9    31   1
    33    11    32   1
    34    11    33   1
    35    13    34   1
    36    14    35   1
    37    15    36   1
    38    16    37   1
    39    17    38   1
    40    20    39   1
    41    21    40   1
    42    21    41   1
    43    21    42   1
@<TRIPOS>SUBSTRUCTURE
     1  MS7      2

