@<TRIPOS>MOLECULE
3mss_ligand_011
    42    43
SMALL
GAST_HUCK
****
This file was generated by PARSER (from files_GN.cpp)

@<TRIPOS>ATOM
      1 N1         -1.4760  -12.2255  -32.0795 N.4         1 MS7       0.2392
      2 C4         -2.4538  -11.2588  -31.5483 C.3         1 MS7       0.0728
      3 C6         -2.3000   -9.8849  -32.2730 C.3         1 MS7       0.0365
      4 C9         -3.1329   -8.7835  -31.7045 C.ar        1 MS7      -0.0460
      5 C10        -2.5589   -7.7513  -30.9240 C.ar        1 MS7      -0.0684
      6 C12        -3.3595   -6.7234  -30.3859 C.ar        1 MS7      -0.0393
      7 C14        -4.7459   -6.6818  -30.6495 C.ar        1 MS7       0.0868
      8 C15        -5.3171   -7.6981  -31.4381 C.ar        1 MS7      -0.0393
      9 C17        -4.5238   -8.7362  -31.9543 C.ar        1 MS7      -0.0684
     10 O19        -5.6076   -5.7429  -30.1420 O.3         1 MS7      -0.3099
     11 C20        -5.2551   -4.3504  -30.2782 C.3         1 MS7       0.1028
     12 C23        -6.4552   -3.4749  -30.1861 C.ar        1 MS7      -0.0131
     13 C24        -7.5872   -3.8469  -29.4200 C.ar        1 MS7      -0.0578
     14 C26        -8.7302   -3.0276  -29.3829 C.ar        1 MS7      -0.0685
     15 C28        -8.7505   -1.8130  -30.0923 C.ar        1 MS7      -0.0687
     16 C30        -7.6238   -1.4131  -30.8301 C.ar        1 MS7      -0.0685
     17 C32        -6.4822   -2.2345  -30.8715 C.ar        1 MS7      -0.0578
     18 C34        -3.7864  -11.8375  -31.6561 C.2         1 MS7       0.2261
     19 O35        -4.4766  -11.9312  -30.6483 O.2         1 MS7      -0.3907
     20 N36        -4.2502  -12.2273  -32.8375 N.am        1 MS7      -0.2853
     21 C38        -5.5598  -12.7303  -33.0854 C.3         1 MS7       0.0197
     22 H1         -0.5315  -11.8778  -31.9196 H           1 MS7       0.2017
     23 H2         -1.6201  -12.3484  -33.0858 H           1 MS7       0.2017
     24 H3         -1.5833  -13.1273  -31.6073 H           1 MS7       0.2017
     25 H4         -2.1954  -11.1096  -30.4943 H           1 MS7       0.1120
     26 H5         -2.5306   -9.9975  -33.3373 H           1 MS7       0.0486
     27 H6         -1.2459   -9.6018  -32.2205 H           1 MS7       0.0486
     28 H7         -1.5551   -7.7489  -30.7318 H           1 MS7       0.0530
     29 H8         -2.9256   -6.0062  -29.7999 H           1 MS7       0.0525
     30 H9         -6.3229   -7.6908  -31.6313 H           1 MS7       0.0525
     31 H10        -4.9773   -9.4604  -32.5177 H           1 MS7       0.0530
     32 H11        -4.7574   -4.1782  -31.2403 H           1 MS7       0.0776
     33 H12        -4.5708   -4.0771  -29.4707 H           1 MS7       0.0776
     34 H13        -7.5918   -4.7228  -28.8902 H           1 MS7       0.0557
     35 H14        -9.5469   -3.3154  -28.8389 H           1 MS7       0.0599
     36 H15        -9.5811   -1.2171  -30.0628 H           1 MS7       0.0559
     37 H16        -7.6341   -0.5282  -31.3390 H           1 MS7       0.0599
     38 H17        -5.6694   -1.9248  -31.4142 H           1 MS7       0.0557
     39 H18        -3.6552  -12.1414  -33.6005 H           1 MS7       0.1849
     40 H19        -5.6432  -13.0070  -34.1365 H           1 MS7       0.0484
     41 H20        -6.3043  -11.9630  -32.8643 H           1 MS7       0.0484
     42 H21        -5.7549  -13.6137  -32.4752 H           1 MS7       0.0484
@<TRIPOS>BOND
     1     1     2   1
     2     2     3   1
     3     2    18   1
     4     3     4   1
     5     4     5  ar
     6     4     9  ar
     7     5     6  ar
     8     6     7  ar
     9     7     8  ar
    10     7    10   1
    11     8     9  ar
    12    10    11   1
    13    11    12   1
    14    12    13  ar
    15    12    17  ar
    16    13    14  ar
    17    14    15  ar
    18    15    16  ar
    19    16    17  ar
    20    18    19   2
    21    18    20  am
    22    20    21   1
    23     1    22   1
    24     1    23   1
    25     1    24   1
    26     2    25   1
    27     3    26   1
    28     3    27   1
    29     5    28   1
    30     6    29   1
    31     8    30   1
    32     9    31   1
    33    11    32   1
    34    11    33   1
    35    13    34   1
    36    14    35   1
    37    15    36   1
    38    16    37   1
    39    17    38   1
    40    20    39   1
    41    21    40   1
    42    21    41   1
    43    21    42   1
@<TRIPOS>SUBSTRUCTURE
     1  MS7      2

