@<TRIPOS>MOLECULE
3mss_ligand_020
    42    43
SMALL
GAST_HUCK
****
This file was generated by PARSER (from files_GN.cpp)

@<TRIPOS>ATOM
      1 N1         -3.2129   -2.7769  -30.5792 N.4         1 MS7       0.2392
      2 C4         -2.3829   -3.7053  -29.7905 C.3         1 MS7       0.0728
      3 C6         -3.1993   -4.9563  -29.3299 C.3         1 MS7       0.0365
      4 C9         -3.2776   -6.1386  -30.2450 C.ar        1 MS7      -0.0460
      5 C10        -4.5087   -6.5825  -30.7906 C.ar        1 MS7      -0.0684
      6 C12        -4.5606   -7.7293  -31.6120 C.ar        1 MS7      -0.0393
      7 C14        -3.3852   -8.4456  -31.9069 C.ar        1 MS7       0.0868
      8 C15        -2.1566   -8.0089  -31.3731 C.ar        1 MS7      -0.0393
      9 C17        -2.1113   -6.8938  -30.5255 C.ar        1 MS7      -0.0684
     10 O19        -3.3910   -9.5660  -32.6919 O.3         1 MS7      -0.3099
     11 C20        -4.0355  -10.7276  -32.1217 C.3         1 MS7       0.1028
     12 C23        -3.1874  -11.9251  -32.3430 C.ar        1 MS7      -0.0131
     13 C24        -3.6556  -13.0397  -33.0783 C.ar        1 MS7      -0.0578
     14 C26        -2.8492  -14.1830  -33.2356 C.ar        1 MS7      -0.0685
     15 C28        -1.5668  -14.2247  -32.6644 C.ar        1 MS7      -0.0687
     16 C30        -1.0902  -13.1260  -31.9286 C.ar        1 MS7      -0.0685
     17 C32        -1.8961  -11.9854  -31.7670 C.ar        1 MS7      -0.0578
     18 C34        -1.1395   -4.0077  -30.4923 C.2         1 MS7       0.2261
     19 O35        -1.1964   -4.4422  -31.6338 O.2         1 MS7      -0.3907
     20 N36         0.0387   -3.8683  -29.8841 N.am        1 MS7      -0.2853
     21 C38         1.2879   -4.2774  -30.4268 C.3         1 MS7       0.0197
     22 H1         -4.0114   -2.4630  -30.0236 H           1 MS7       0.2017
     23 H2         -3.5526   -3.2484  -31.4215 H           1 MS7       0.2017
     24 H3         -2.6498   -1.9652  -30.8370 H           1 MS7       0.2017
     25 H4         -2.1296   -3.1477  -28.8788 H           1 MS7       0.1120
     26 H5         -4.2098   -4.6150  -29.0838 H           1 MS7       0.0486
     27 H6         -2.7653   -5.3083  -28.3901 H           1 MS7       0.0486
     28 H7         -5.3760   -6.0952  -30.5767 H           1 MS7       0.0530
     29 H8         -5.4579   -8.0488  -31.9852 H           1 MS7       0.0525
     30 H9         -1.3013   -8.5342  -31.5715 H           1 MS7       0.0525
     31 H10        -1.2272   -6.6505  -30.0870 H           1 MS7       0.0530
     32 H11        -5.0079  -10.8321  -32.6092 H           1 MS7       0.0776
     33 H12        -4.2163  -10.6427  -31.0461 H           1 MS7       0.0776
     34 H13        -4.5894  -13.0312  -33.4955 H           1 MS7       0.0557
     35 H14        -3.1983  -14.9844  -33.7675 H           1 MS7       0.0599
     36 H15        -0.9823  -15.0573  -32.7790 H           1 MS7       0.0559
     37 H16        -0.1604  -13.1599  -31.5047 H           1 MS7       0.0599
     38 H17        -1.5415  -11.2043  -31.2099 H           1 MS7       0.0557
     39 H18         0.0440   -3.4758  -28.9948 H           1 MS7       0.1849
     40 H19         2.0906   -3.9522  -29.7640 H           1 MS7       0.0484
     41 H20         1.4625   -3.8491  -31.4186 H           1 MS7       0.0484
     42 H21         1.3048   -5.3663  -30.4983 H           1 MS7       0.0484
@<TRIPOS>BOND
     1     1     2   1
     2     2     3   1
     3     2    18   1
     4     3     4   1
     5     4     5  ar
     6     4     9  ar
     7     5     6  ar
     8     6     7  ar
     9     7     8  ar
    10     7    10   1
    11     8     9  ar
    12    10    11   1
    13    11    12   1
    14    12    13  ar
    15    12    17  ar
    16    13    14  ar
    17    14    15  ar
    18    15    16  ar
    19    16    17  ar
    20    18    19   2
    21    18    20  am
    22    20    21   1
    23     1    22   1
    24     1    23   1
    25     1    24   1
    26     2    25   1
    27     3    26   1
    28     3    27   1
    29     5    28   1
    30     6    29   1
    31     8    30   1
    32     9    31   1
    33    11    32   1
    34    11    33   1
    35    13    34   1
    36    14    35   1
    37    15    36   1
    38    16    37   1
    39    17    38   1
    40    20    39   1
    41    21    40   1
    42    21    41   1
    43    21    42   1
@<TRIPOS>SUBSTRUCTURE
     1  MS7      2

