@<TRIPOS>MOLECULE
3mss_ligand_024
    42    43
SMALL
GAST_HUCK
****
This file was generated by PARSER (from files_GN.cpp)

@<TRIPOS>ATOM
      1 N1         -5.4642  -11.5175  -28.8413 N.4         1 MS7       0.2392
      2 C4         -5.4604  -12.3598  -30.0504 C.3         1 MS7       0.0728
      3 C6         -4.1743  -12.1647  -30.9234 C.3         1 MS7       0.0365
      4 C9         -3.8066  -10.7592  -31.2804 C.ar        1 MS7      -0.0460
      5 C10        -2.4560  -10.4138  -31.5308 C.ar        1 MS7      -0.0684
      6 C12        -2.1030   -9.0964  -31.8880 C.ar        1 MS7      -0.0393
      7 C14        -3.0797   -8.0887  -31.9864 C.ar        1 MS7       0.0868
      8 C15        -4.4281   -8.4349  -31.7860 C.ar        1 MS7      -0.0393
      9 C17        -4.7893   -9.7515  -31.4394 C.ar        1 MS7      -0.0684
     10 O19        -2.7815   -6.7927  -32.3333 O.3         1 MS7      -0.3099
     11 C20        -1.5763   -6.2106  -31.7750 C.3         1 MS7       0.1028
     12 C23        -1.8824   -4.9185  -31.1068 C.ar        1 MS7      -0.0131
     13 C24        -3.1533   -4.7396  -30.5100 C.ar        1 MS7      -0.0578
     14 C26        -3.4477   -3.5587  -29.8055 C.ar        1 MS7      -0.0685
     15 C28        -2.4820   -2.5424  -29.7015 C.ar        1 MS7      -0.0687
     16 C30        -1.2225   -2.7012  -30.3086 C.ar        1 MS7      -0.0685
     17 C32        -0.9251   -3.8842  -31.0030 C.ar        1 MS7      -0.0578
     18 C34        -5.6705  -13.7526  -29.6677 C.2         1 MS7       0.2261
     19 O35        -6.5911  -14.3834  -30.1839 O.2         1 MS7      -0.3907
     20 N36        -4.8985  -14.3115  -28.7425 N.am        1 MS7      -0.2853
     21 C38        -5.0230  -15.6378  -28.2385 C.3         1 MS7       0.0197
     22 H1         -5.5046  -10.5346  -29.1149 H           1 MS7       0.2017
     23 H2         -4.6189  -11.6844  -28.2935 H           1 MS7       0.2017
     24 H3         -6.2850  -11.7411  -28.2712 H           1 MS7       0.2017
     25 H4         -6.3162  -12.0306  -30.6451 H           1 MS7       0.1120
     26 H5         -4.3266  -12.7032  -31.8637 H           1 MS7       0.0486
     27 H6         -3.3325  -12.6464  -30.4163 H           1 MS7       0.0486
     28 H7         -1.7144  -11.1157  -31.4719 H           1 MS7       0.0530
     29 H8         -1.1222   -8.8713  -32.0654 H           1 MS7       0.0525
     30 H9         -5.1590   -7.7256  -31.8911 H           1 MS7       0.0525
     31 H10        -5.7757   -9.9693  -31.2999 H           1 MS7       0.0530
     32 H11        -0.8769   -6.0673  -32.6018 H           1 MS7       0.0776
     33 H12        -1.0758   -6.8508  -31.0400 H           1 MS7       0.0776
     34 H13        -3.8614   -5.4744  -30.5690 H           1 MS7       0.0557
     35 H14        -4.3607   -3.4441  -29.3683 H           1 MS7       0.0599
     36 H15        -2.6933   -1.6888  -29.1816 H           1 MS7       0.0559
     37 H16        -0.5268   -1.9560  -30.2404 H           1 MS7       0.0599
     38 H17         0.0012   -3.9892  -31.4316 H           1 MS7       0.0557
     39 H18        -4.2073  -13.7536  -28.3524 H           1 MS7       0.1849
     40 H19        -4.2817  -15.7768  -27.4519 H           1 MS7       0.0484
     41 H20        -4.8375  -16.3666  -29.0275 H           1 MS7       0.0484
     42 H21        -6.0137  -15.8004  -27.8125 H           1 MS7       0.0484
@<TRIPOS>BOND
     1     1     2   1
     2     2     3   1
     3     2    18   1
     4     3     4   1
     5     4     5  ar
     6     4     9  ar
     7     5     6  ar
     8     6     7  ar
     9     7     8  ar
    10     7    10   1
    11     8     9  ar
    12    10    11   1
    13    11    12   1
    14    12    13  ar
    15    12    17  ar
    16    13    14  ar
    17    14    15  ar
    18    15    16  ar
    19    16    17  ar
    20    18    19   2
    21    18    20  am
    22    20    21   1
    23     1    22   1
    24     1    23   1
    25     1    24   1
    26     2    25   1
    27     3    26   1
    28     3    27   1
    29     5    28   1
    30     6    29   1
    31     8    30   1
    32     9    31   1
    33    11    32   1
    34    11    33   1
    35    13    34   1
    36    14    35   1
    37    15    36   1
    38    16    37   1
    39    17    38   1
    40    20    39   1
    41    21    40   1
    42    21    41   1
    43    21    42   1
@<TRIPOS>SUBSTRUCTURE
     1  MS7      2

