@<TRIPOS>MOLECULE
3mss_ligand_012
    42    43
SMALL
GAST_HUCK
****
This file was generated by PARSER (from files_GN.cpp)

@<TRIPOS>ATOM
      1 N1         -4.0449  -11.5690  -32.7922 N.4         1 MS7       0.2392
      2 C4         -3.5830  -11.8298  -31.4174 C.3         1 MS7       0.0728
      3 C6         -2.3809  -10.8942  -31.0575 C.3         1 MS7       0.0365
      4 C9         -2.6294   -9.4334  -31.2383 C.ar        1 MS7      -0.0460
      5 C10        -1.9952   -8.6971  -32.2692 C.ar        1 MS7      -0.0684
      6 C12        -2.2707   -7.3270  -32.4563 C.ar        1 MS7      -0.0393
      7 C14        -3.1821   -6.6593  -31.6149 C.ar        1 MS7       0.0868
      8 C15        -3.8091   -7.3900  -30.5824 C.ar        1 MS7      -0.0393
      9 C17        -3.5207   -8.7485  -30.3827 C.ar        1 MS7      -0.0684
     10 O19        -3.5077   -5.3533  -31.8945 O.3         1 MS7      -0.3099
     11 C20        -3.6526   -4.4260  -30.7935 C.3         1 MS7       0.1028
     12 C23        -4.9938   -3.7834  -30.8166 C.ar        1 MS7      -0.0131
     13 C24        -6.1683   -4.5691  -30.9000 C.ar        1 MS7      -0.0578
     14 C26        -7.4422   -3.9786  -30.8420 C.ar        1 MS7      -0.0685
     15 C28        -7.5646   -2.5883  -30.6857 C.ar        1 MS7      -0.0687
     16 C30        -6.4112   -1.7882  -30.6056 C.ar        1 MS7      -0.0685
     17 C32        -5.1335   -2.3813  -30.6756 C.ar        1 MS7      -0.0578
     18 C34        -4.6775  -11.7864  -30.4509 C.2         1 MS7       0.2261
     19 O35        -5.5905  -10.9792  -30.5809 O.2         1 MS7      -0.3907
     20 N36        -4.6747  -12.6360  -29.4303 N.am        1 MS7      -0.2853
     21 C38        -5.6586  -12.7161  -28.4030 C.3         1 MS7       0.0197
     22 H1         -3.2669  -11.6797  -33.4490 H           1 MS7       0.2017
     23 H2         -4.4118  -10.6186  -32.8587 H           1 MS7       0.2017
     24 H3         -4.7853  -12.2323  -33.0350 H           1 MS7       0.2017
     25 H4         -3.2089  -12.8579  -31.4295 H           1 MS7       0.1120
     26 H5         -1.5380  -11.2039  -31.6801 H           1 MS7       0.0486
     27 H6         -2.0728  -11.0671  -30.0235 H           1 MS7       0.0486
     28 H7         -1.3379   -9.1553  -32.9034 H           1 MS7       0.0530
     29 H8         -1.8190   -6.8223  -33.2220 H           1 MS7       0.0525
     30 H9         -4.4799   -6.9398  -29.9615 H           1 MS7       0.0525
     31 H10        -3.9806   -9.2304  -29.6091 H           1 MS7       0.0530
     32 H11        -2.8580   -3.6834  -30.8976 H           1 MS7       0.0776
     33 H12        -3.5313   -4.8886  -29.8095 H           1 MS7       0.0776
     34 H13        -6.1112   -5.5827  -31.0123 H           1 MS7       0.0557
     35 H14        -8.2797   -4.5635  -30.9030 H           1 MS7       0.0599
     36 H15        -8.4911   -2.1600  -30.6255 H           1 MS7       0.0559
     37 H16        -6.5011   -0.7785  -30.4826 H           1 MS7       0.0599
     38 H17        -4.3093   -1.7825  -30.5997 H           1 MS7       0.0557
     39 H18        -3.9411  -13.2671  -29.3789 H           1 MS7       0.1849
     40 H19        -5.4186  -13.5560  -27.7508 H           1 MS7       0.0484
     41 H20        -6.6508  -12.8790  -28.8276 H           1 MS7       0.0484
     42 H21        -5.6622  -11.8019  -27.8077 H           1 MS7       0.0484
@<TRIPOS>BOND
     1     1     2   1
     2     2     3   1
     3     2    18   1
     4     3     4   1
     5     4     5  ar
     6     4     9  ar
     7     5     6  ar
     8     6     7  ar
     9     7     8  ar
    10     7    10   1
    11     8     9  ar
    12    10    11   1
    13    11    12   1
    14    12    13  ar
    15    12    17  ar
    16    13    14  ar
    17    14    15  ar
    18    15    16  ar
    19    16    17  ar
    20    18    19   2
    21    18    20  am
    22    20    21   1
    23     1    22   1
    24     1    23   1
    25     1    24   1
    26     2    25   1
    27     3    26   1
    28     3    27   1
    29     5    28   1
    30     6    29   1
    31     8    30   1
    32     9    31   1
    33    11    32   1
    34    11    33   1
    35    13    34   1
    36    14    35   1
    37    15    36   1
    38    16    37   1
    39    17    38   1
    40    20    39   1
    41    21    40   1
    42    21    41   1
    43    21    42   1
@<TRIPOS>SUBSTRUCTURE
     1  MS7      2

