@<TRIPOS>MOLECULE
3myg_ligand_070
    57    60
SMALL
GAST_HUCK
****
This file was generated by PARSER (from files_GN.cpp)

@<TRIPOS>ATOM
      1 C1         -7.2386   29.1612   78.0435 C.2         1 EML       0.0195
      2 N1         -7.1891   27.7769   83.9682 N.pl3       1 EML      -0.2184
      3 O1         -4.1572   30.2291   87.7848 O.3         1 EML      -0.3892
      4 S1         -7.4184   29.0129   86.2418 S.3         1 EML       0.0206
      5 C2         -7.7407   26.7957   79.9997 C.2         1 EML       0.0730
      6 N2         -6.7822   29.7900   81.5359 N.2         1 EML      -0.3304
      7 C3         -7.9227   25.9179   81.0080 C.2         1 EML       0.0276
      8 N3         -7.3743   28.0650   80.2738 N.pl3       1 EML      -0.2136
      9 C4         -3.1179   32.8429   84.0196 C.3         1 EML      -0.0323
     10 N4         -7.9346   28.9307   75.9620 N.pl3       1 EML      -0.2209
     11 C5         -7.3151   27.5873   82.6307 C.2         1 EML       0.1947
     12 N5         -6.8166   29.6090   75.8966 N.2         1 EML      -0.2182
     13 C6         -7.1444   28.4932   81.5452 C.2         1 EML       0.1969
     14 N6         -6.5491   30.4077   86.3707 N.2         1 EML      -0.3061
     15 C7         -7.1373   29.1033   79.4459 C.2         1 EML       0.0797
     16 N7         -7.7179   26.3364   82.2708 N.2         1 EML      -0.2843
     17 C8         -6.3708   29.7964   77.1513 C.2         1 EML       0.0048
     18 N8         -3.5627   31.7906   85.0186 N.4         1 EML       0.2558
     19 C9         -6.7501   30.1738   80.2533 C.2         1 EML      -0.0220
     20 C10        -8.2310   28.6178   77.2306 C.2         1 EML       0.0562
     21 C11        -6.8057   28.8360   84.6695 C.2         1 EML       0.1479
     22 C12        -5.9066   29.7840   84.3932 C.2         1 EML      -0.0058
     23 C13        -5.0472   31.9264   85.2902 C.3         1 EML       0.0137
     24 C14        -5.7878   30.6764   85.3771 C.2         1 EML       0.0332
     25 C15        -2.6339   31.4502   86.1994 C.3         1 EML       0.0096
     26 C16        -3.2726   34.3422   84.3931 C.3         1 EML      -0.0244
     27 C17        -3.0658   30.0946   86.8851 C.3         1 EML       0.0892
     28 C18        -2.5138   32.5415   87.3176 C.3         1 EML      -0.0168
     29 C19        -8.3107   24.5406   80.7716 C.3         1 EML      -0.0245
     30 C20        -1.1767   31.1981   85.6801 C.3         1 EML      -0.0168
     31 H1         -7.5042   27.0354   84.5101 H           1 EML       0.2327
     32 H2         -4.3287   29.3299   88.1376 H           1 EML       0.2097
     33 H3         -7.8463   26.4913   79.0600 H           1 EML       0.0922
     34 H4         -3.7017   32.6929   83.1084 H           1 EML       0.0812
     35 H5         -2.0894   32.6840   83.6962 H           1 EML       0.0812
     36 H6         -8.4577   28.6658   75.1869 H           1 EML       0.2577
     37 H7         -5.5156   30.3067   77.3965 H           1 EML       0.0660
     38 H8         -3.4998   30.9373   84.4575 H           1 EML       0.2059
     39 H9         -6.5137   31.1157   79.9362 H           1 EML       0.0468
     40 H10        -9.0578   28.0909   77.5340 H           1 EML       0.0974
     41 H11        -5.3102   29.7675   83.6027 H           1 EML       0.0280
     42 H12        -5.5524   32.4724   84.4871 H           1 EML       0.1036
     43 H13        -5.2053   32.5282   86.1862 H           1 EML       0.1036
     44 H14        -3.1472   34.9609   83.4971 H           1 EML       0.0281
     45 H15        -2.5157   34.6577   85.1143 H           1 EML       0.0281
     46 H16        -4.2646   34.5494   84.7996 H           1 EML       0.0281
     47 H17        -3.3379   29.3598   86.1290 H           1 EML       0.0616
     48 H18        -2.2544   29.6663   87.4796 H           1 EML       0.0616
     49 H19        -1.8819   32.1921   88.1359 H           1 EML       0.0288
     50 H20        -3.4769   32.7931   87.7408 H           1 EML       0.0288
     51 H21        -2.0597   33.4531   86.9411 H           1 EML       0.0288
     52 H22        -8.4129   23.9758   81.6996 H           1 EML       0.0384
     53 H23        -7.5606   24.0449   80.1559 H           1 EML       0.0384
     54 H24        -9.2675   24.5021   80.2470 H           1 EML       0.0384
     55 H25        -0.5282   30.7721   86.4556 H           1 EML       0.0288
     56 H26        -0.7028   32.1298   85.3688 H           1 EML       0.0288
     57 H27        -1.1842   30.5106   84.8308 H           1 EML       0.0288
@<TRIPOS>BOND
     1    15     1   1
     2     1    17   1
     3     1    20   2
     4     2    11   1
     5    21     2   1
     6    27     3   1
     7    14     4   1
     8    21     4   1
     9     7     5   2
    10     8     5   1
    11    13     6   2
    12     6    19   1
    13    16     7   1
    14     7    29   1
    15    13     8   1
    16     8    15   1
    17    18     9   1
    18     9    26   1
    19    10    12   1
    20    20    10   1
    21    11    13   1
    22    11    16   2
    23    17    12   2
    24    24    14   2
    25    15    19   2
    26    18    23   1
    27    25    18   1
    28    22    21   2
    29    24    22   1
    30    23    24   1
    31    25    27   1
    32    25    28   1
    33    25    30   1
    34     2    31   1
    35     3    32   1
    36     5    33   1
    37     9    34   1
    38     9    35   1
    39    10    36   1
    40    17    37   1
    41    18    38   1
    42    19    39   1
    43    20    40   1
    44    22    41   1
    45    23    42   1
    46    23    43   1
    47    26    44   1
    48    26    45   1
    49    26    46   1
    50    27    47   1
    51    27    48   1
    52    28    49   1
    53    28    50   1
    54    28    51   1
    55    29    52   1
    56    29    53   1
    57    29    54   1
    58    30    55   1
    59    30    56   1
    60    30    57   1
@<TRIPOS>SUBSTRUCTURE
     1  EML      1

