@<TRIPOS>MOLECULE
3myg_ligand_002
    57    60
SMALL
GAST_HUCK
****
This file was generated by PARSER (from files_GN.cpp)

@<TRIPOS>ATOM
      1 C1         -7.8598   29.7162   90.3456 C.2         1 EML       0.0195
      2 N1         -7.2583   26.7165   85.2656 N.pl3       1 EML      -0.2184
      3 O1         -9.9592   20.7873   80.8046 O.3         1 EML      -0.3892
      4 S1         -7.2471   27.5151   82.6252 S.3         1 EML       0.0206
      5 C2         -7.7052   30.2739   87.3108 C.2         1 EML       0.0730
      6 N2         -7.3110   26.9145   88.1989 N.2         1 EML      -0.3304
      7 C3         -7.6057   30.2953   85.9622 C.2         1 EML       0.0276
      8 N3         -7.6148   29.0976   87.9655 N.pl3       1 EML      -0.2136
      9 C4         -7.7374   22.6071   79.4194 C.3         1 EML      -0.0323
     10 N4         -7.6395   30.9662   92.1337 N.pl3       1 EML      -0.2209
     11 C5         -7.3768   27.9046   85.9032 C.2         1 EML       0.1947
     12 N5         -8.8248   31.2063   91.6644 N.2         1 EML      -0.2182
     13 C6         -7.4298   27.9207   87.3193 C.2         1 EML       0.1969
     14 N6         -7.1964   26.2008   81.6218 N.2         1 EML      -0.3061
     15 C7         -7.6292   28.8249   89.2845 C.2         1 EML       0.0797
     16 N7         -7.4649   29.1221   85.3000 N.2         1 EML      -0.2843
     17 C8         -9.0072   30.4602   90.5620 C.2         1 EML       0.0048
     18 N8         -8.2570   23.5288   80.5079 N.4         1 EML       0.2558
     19 C9         -7.4207   27.4594   89.4218 C.2         1 EML      -0.0220
     20 C10        -7.0021   30.0500   91.3778 C.2         1 EML       0.0562
     21 C11        -7.2087   26.4485   83.9591 C.2         1 EML       0.1479
     22 C12        -7.1255   25.1917   83.5428 C.2         1 EML      -0.0058
     23 C13        -7.1432   23.7967   81.5026 C.3         1 EML       0.0137
     24 C14        -7.1653   25.0708   82.2113 C.2         1 EML       0.0332
     25 C15        -9.6923   23.2712   81.0138 C.3         1 EML       0.0096
     26 C16        -6.9628   21.3159   79.8088 C.3         1 EML      -0.0244
     27 C17        -9.8864   21.8806   81.7093 C.3         1 EML       0.0892
     28 C18       -10.7205   23.4221   79.8326 C.3         1 EML      -0.0168
     29 C19        -7.6202   31.5390   85.2202 C.3         1 EML      -0.0245
     30 C20       -10.1473   24.3630   82.0516 C.3         1 EML      -0.0168
     31 H1         -7.2184   25.9372   85.8408 H           1 EML       0.2327
     32 H2         -9.9842   19.9898   81.3775 H           1 EML       0.2097
     33 H3         -7.8058   31.1217   87.8239 H           1 EML       0.0922
     34 H4         -7.0550   23.2016   78.8084 H           1 EML       0.0812
     35 H5         -8.5289   22.3163   78.7363 H           1 EML       0.0812
     36 H6         -7.2593   31.3860   92.9204 H           1 EML       0.2577
     37 H7         -9.8590   30.4310   89.9991 H           1 EML       0.0660
     38 H8         -8.3518   24.4271   80.0280 H           1 EML       0.2059
     39 H9         -7.3926   26.9403   90.3010 H           1 EML       0.0468
     40 H10        -6.0487   29.7141   91.5182 H           1 EML       0.0974
     41 H11        -7.0760   24.4124   84.1547 H           1 EML       0.0280
     42 H12        -6.1740   23.8225   80.9908 H           1 EML       0.1036
     43 H13        -7.0961   22.9635   82.2067 H           1 EML       0.1036
     44 H14        -6.7318   20.7491   78.9066 H           1 EML       0.0281
     45 H15        -7.5350   20.6794   80.4756 H           1 EML       0.0281
     46 H16        -6.0236   21.5583   80.2997 H           1 EML       0.0281
     47 H17        -9.0795   21.6966   82.4192 H           1 EML       0.0616
     48 H18       -10.8244   21.8576   82.2672 H           1 EML       0.0616
     49 H19       -11.7531   23.4457   80.1877 H           1 EML       0.0288
     50 H20       -10.6669   22.5972   79.1262 H           1 EML       0.0288
     51 H21       -10.5352   24.3477   79.2831 H           1 EML       0.0288
     52 H22        -7.5159   31.3658   84.1466 H           1 EML       0.0384
     53 H23        -6.7913   32.1729   85.5448 H           1 EML       0.0384
     54 H24        -8.5597   32.0692   85.3923 H           1 EML       0.0384
     55 H25       -11.2175   24.2879   82.2817 H           1 EML       0.0288
     56 H26        -9.9665   25.3691   81.6659 H           1 EML       0.0288
     57 H27        -9.6266   24.2451   83.0030 H           1 EML       0.0288
@<TRIPOS>BOND
     1    15     1   1
     2     1    17   1
     3     1    20   2
     4     2    11   1
     5    21     2   1
     6    27     3   1
     7    14     4   1
     8    21     4   1
     9     7     5   2
    10     8     5   1
    11    13     6   2
    12     6    19   1
    13    16     7   1
    14     7    29   1
    15    13     8   1
    16     8    15   1
    17    18     9   1
    18     9    26   1
    19    10    12   1
    20    20    10   1
    21    11    13   1
    22    11    16   2
    23    17    12   2
    24    24    14   2
    25    15    19   2
    26    18    23   1
    27    25    18   1
    28    22    21   2
    29    24    22   1
    30    23    24   1
    31    25    27   1
    32    25    28   1
    33    25    30   1
    34     2    31   1
    35     3    32   1
    36     5    33   1
    37     9    34   1
    38     9    35   1
    39    10    36   1
    40    17    37   1
    41    18    38   1
    42    19    39   1
    43    20    40   1
    44    22    41   1
    45    23    42   1
    46    23    43   1
    47    26    44   1
    48    26    45   1
    49    26    46   1
    50    27    47   1
    51    27    48   1
    52    28    49   1
    53    28    50   1
    54    28    51   1
    55    29    52   1
    56    29    53   1
    57    29    54   1
    58    30    55   1
    59    30    56   1
    60    30    57   1
@<TRIPOS>SUBSTRUCTURE
     1  EML      1

