@<TRIPOS>MOLECULE
3myg_ligand_014
    57    60
SMALL
GAST_HUCK
****
This file was generated by PARSER (from files_GN.cpp)

@<TRIPOS>ATOM
      1 C1         -0.3791   32.6871   86.1340 C.2         1 EML       0.0195
      2 N1         -6.3415   32.8098   84.8223 N.pl3       1 EML      -0.2184
      3 O1         -8.0874   26.1150   88.1376 O.3         1 EML      -0.3892
      4 S1         -6.1639   30.1097   84.7185 S.3         1 EML       0.0206
      5 C2         -2.5872   34.4927   84.6527 C.2         1 EML       0.0730
      6 N2         -3.8058   31.5644   86.1153 N.2         1 EML      -0.3304
      7 C3         -3.6826   35.0994   84.1347 C.2         1 EML       0.0276
      8 N3         -2.6941   33.2806   85.2594 N.pl3       1 EML      -0.2136
      9 C4         -9.3025   29.3469   88.8114 C.3         1 EML      -0.0323
     10 N4          1.7091   32.3040   86.7950 N.pl3       1 EML      -0.2209
     11 C5         -5.0651   33.2564   84.7918 C.2         1 EML       0.1947
     12 N5          1.7414   33.4039   86.1139 N.2         1 EML      -0.2182
     13 C6         -3.9015   32.6608   85.3546 C.2         1 EML       0.1969
     14 N6         -7.5191   29.3900   85.3188 N.2         1 EML      -0.3061
     15 C7         -1.7825   32.5190   85.9209 C.2         1 EML       0.0797
     16 N7         -4.8723   34.4711   84.2195 N.2         1 EML      -0.2843
     17 C8          0.4922   33.6839   85.6929 C.2         1 EML       0.0048
     18 N8         -9.3446   28.6847   87.4505 N.4         1 EML       0.2558
     19 C9         -2.5165   31.4483   86.4497 C.2         1 EML      -0.0220
     20 C10         0.4605   31.8201   86.8359 C.2         1 EML       0.0562
     21 C11        -6.8253   31.6192   85.1520 C.2         1 EML       0.1479
     22 C12        -8.0656   31.4775   85.6173 C.2         1 EML      -0.0058
     23 C13        -9.6432   29.7110   86.3661 C.3         1 EML       0.0137
     24 C14        -8.4218   30.1968   85.7508 C.2         1 EML       0.0332
     25 C15       -10.1116   27.3537   87.3684 C.3         1 EML       0.0096
     26 C16        -8.1659   30.3796   89.0137 C.3         1 EML      -0.0244
     27 C17        -9.4947   26.2674   88.3289 C.3         1 EML       0.0892
     28 C18       -10.0234   26.7265   85.9247 C.3         1 EML      -0.0168
     29 C19        -3.6228   36.4143   83.5261 C.3         1 EML      -0.0245
     30 C20       -11.6177   27.5422   87.7419 C.3         1 EML      -0.0168
     31 H1         -7.0047   33.4688   84.5834 H           1 EML       0.2327
     32 H2         -7.9861   25.4930   87.3825 H           1 EML       0.2097
     33 H3         -1.7179   34.9609   84.6291 H           1 EML       0.0922
     34 H4         -9.1399   28.6117   89.5985 H           1 EML       0.0812
     35 H5        -10.2590   29.8394   89.0305 H           1 EML       0.0812
     36 H6          2.4867   31.8831   87.1991 H           1 EML       0.2577
     37 H7          0.2705   34.4907   85.1048 H           1 EML       0.0660
     38 H8         -8.3763   28.4009   87.2850 H           1 EML       0.2059
     39 H9         -2.1556   30.6815   87.0230 H           1 EML       0.0468
     40 H10         0.1950   30.9550   87.3153 H           1 EML       0.0974
     41 H11        -8.6556   32.2491   85.8470 H           1 EML       0.0280
     42 H12       -10.2414   30.5451   86.7605 H           1 EML       0.1036
     43 H13       -10.2402   29.3077   85.5523 H           1 EML       0.1036
     44 H14        -8.0852   30.6442   90.0665 H           1 EML       0.0281
     45 H15        -8.3642   31.2927   88.4568 H           1 EML       0.0281
     46 H16        -7.2146   29.9582   88.6822 H           1 EML       0.0281
     47 H17        -9.6671   26.5139   89.3779 H           1 EML       0.0616
     48 H18        -9.9599   25.2878   88.1829 H           1 EML       0.0616
     49 H19       -10.3240   25.6749   85.9187 H           1 EML       0.0288
     50 H20        -8.9987   26.7874   85.5477 H           1 EML       0.0288
     51 H21       -10.6826   27.2275   85.2156 H           1 EML       0.0288
     52 H22        -4.6032   36.7389   83.1594 H           1 EML       0.0384
     53 H23        -2.9273   36.4037   82.6820 H           1 EML       0.0384
     54 H24        -3.2726   37.1465   84.2594 H           1 EML       0.0384
     55 H25       -12.1659   26.6033   87.6306 H           1 EML       0.0288
     56 H26       -12.0896   28.2880   87.1011 H           1 EML       0.0288
     57 H27       -11.7252   27.8708   88.7778 H           1 EML       0.0288
@<TRIPOS>BOND
     1    15     1   1
     2     1    17   1
     3     1    20   2
     4     2    11   1
     5    21     2   1
     6    27     3   1
     7    14     4   1
     8    21     4   1
     9     7     5   2
    10     8     5   1
    11    13     6   2
    12     6    19   1
    13    16     7   1
    14     7    29   1
    15    13     8   1
    16     8    15   1
    17    18     9   1
    18     9    26   1
    19    10    12   1
    20    20    10   1
    21    11    13   1
    22    11    16   2
    23    17    12   2
    24    24    14   2
    25    15    19   2
    26    18    23   1
    27    25    18   1
    28    22    21   2
    29    24    22   1
    30    23    24   1
    31    25    27   1
    32    25    28   1
    33    25    30   1
    34     2    31   1
    35     3    32   1
    36     5    33   1
    37     9    34   1
    38     9    35   1
    39    10    36   1
    40    17    37   1
    41    18    38   1
    42    19    39   1
    43    20    40   1
    44    22    41   1
    45    23    42   1
    46    23    43   1
    47    26    44   1
    48    26    45   1
    49    26    46   1
    50    27    47   1
    51    27    48   1
    52    28    49   1
    53    28    50   1
    54    28    51   1
    55    29    52   1
    56    29    53   1
    57    29    54   1
    58    30    55   1
    59    30    56   1
    60    30    57   1
@<TRIPOS>SUBSTRUCTURE
     1  EML      1

