@<TRIPOS>MOLECULE
3myg_ligand_029
    57    60
SMALL
GAST_HUCK
****
This file was generated by PARSER (from files_GN.cpp)

@<TRIPOS>ATOM
      1 C1         -6.3661   44.5252   80.1184 C.2         1 EML       0.0195
      2 N1         -2.3064   42.5206   84.2581 N.pl3       1 EML      -0.2184
      3 O1         -1.3654   35.2998   80.4729 O.3         1 EML      -0.3892
      4 S1         -0.3740   40.8733   84.8571 S.3         1 EML       0.0206
      5 C2         -4.9856   45.3305   82.8444 C.2         1 EML       0.0730
      6 N2         -4.1208   42.1872   81.6172 N.2         1 EML      -0.3304
      7 C3         -4.2785   45.4786   83.9854 C.2         1 EML       0.0276
      8 N3         -4.8447   44.2030   82.1073 N.pl3       1 EML      -0.2136
      9 C4          1.4638   37.9895   81.8274 C.3         1 EML      -0.0323
     10 N4         -7.9034   44.9598   78.5963 N.pl3       1 EML      -0.2209
     11 C5         -3.2384   43.3264   83.6792 C.2         1 EML       0.1947
     12 N5         -7.3833   46.1021   78.9167 N.2         1 EML      -0.2182
     13 C6         -4.0188   43.1954   82.4916 C.2         1 EML       0.1969
     14 N6         -0.1703   39.5766   83.8505 N.2         1 EML      -0.3061
     15 C7         -5.4662   43.8247   80.9635 C.2         1 EML       0.0797
     16 N7         -3.4367   44.4926   84.3496 N.2         1 EML      -0.2843
     17 C8         -6.4348   45.8875   79.8489 C.2         1 EML       0.0048
     18 N8          0.0468   37.4589   81.7972 N.4         1 EML       0.2558
     19 C9         -5.0123   42.5404   80.6936 C.2         1 EML      -0.0220
     20 C10        -7.3230   43.9676   79.2821 C.2         1 EML       0.0562
     21 C11        -1.7409   41.3480   83.9544 C.2         1 EML       0.1479
     22 C12        -2.0130   40.4181   83.0421 C.2         1 EML      -0.0058
     23 C13        -0.9742   38.5711   81.8093 C.3         1 EML       0.0137
     24 C14        -1.0795   39.4533   82.9666 C.2         1 EML       0.0332
     25 C15        -0.2846   36.1477   82.5440 C.3         1 EML       0.0096
     26 C16         2.4366   37.2640   80.8630 C.3         1 EML      -0.0244
     27 C17        -0.3667   35.0195   81.4551 C.3         1 EML       0.0892
     28 C18        -1.6611   36.1344   83.3134 C.3         1 EML      -0.0168
     29 C19        -4.4048   46.6634   84.8115 C.3         1 EML      -0.0245
     30 C20         0.7745   35.6945   83.6131 C.3         1 EML      -0.0168
     31 H1         -1.9120   42.9238   85.0465 H           1 EML       0.2327
     32 H2         -1.3338   34.5434   79.8505 H           1 EML       0.2097
     33 H3         -5.6328   46.0310   82.5668 H           1 EML       0.0922
     34 H4          1.8767   37.9788   82.8372 H           1 EML       0.0812
     35 H5          1.4890   39.0356   81.5076 H           1 EML       0.0812
     36 H6         -8.5863   44.8253   77.9210 H           1 EML       0.2577
     37 H7         -5.8432   46.6190   80.2450 H           1 EML       0.0660
     38 H8         -0.0349   37.1794   80.8196 H           1 EML       0.2059
     39 H9         -5.2835   41.9589   79.8981 H           1 EML       0.0468
     40 H10        -7.5556   42.9730   79.1887 H           1 EML       0.0974
     41 H11        -2.8358   40.3847   82.4898 H           1 EML       0.0280
     42 H12        -1.9566   38.1506   81.5978 H           1 EML       0.1036
     43 H13        -0.7704   39.2096   80.9444 H           1 EML       0.1036
     44 H14         3.4074   37.7675   80.8680 H           1 EML       0.0281
     45 H15         2.0422   37.2872   79.8429 H           1 EML       0.0281
     46 H16         2.5981   36.2273   81.1584 H           1 EML       0.0281
     47 H17         0.5911   34.9223   80.9407 H           1 EML       0.0616
     48 H18        -0.5978   34.0505   81.9120 H           1 EML       0.0616
     49 H19        -1.8153   35.1845   83.8386 H           1 EML       0.0288
     50 H20        -2.5134   36.2608   82.6401 H           1 EML       0.0288
     51 H21        -1.6841   36.9328   84.0610 H           1 EML       0.0288
     52 H22        -3.7734   46.5964   85.6996 H           1 EML       0.0384
     53 H23        -5.4403   46.7829   85.1359 H           1 EML       0.0384
     54 H24        -4.1060   47.5454   84.2424 H           1 EML       0.0384
     55 H25         0.4917   34.7432   84.0794 H           1 EML       0.0288
     56 H26         0.8632   36.4444   84.4047 H           1 EML       0.0288
     57 H27         1.7601   35.5393   83.1711 H           1 EML       0.0288
@<TRIPOS>BOND
     1    15     1   1
     2     1    17   1
     3     1    20   2
     4     2    11   1
     5    21     2   1
     6    27     3   1
     7    14     4   1
     8    21     4   1
     9     7     5   2
    10     8     5   1
    11    13     6   2
    12     6    19   1
    13    16     7   1
    14     7    29   1
    15    13     8   1
    16     8    15   1
    17    18     9   1
    18     9    26   1
    19    10    12   1
    20    20    10   1
    21    11    13   1
    22    11    16   2
    23    17    12   2
    24    24    14   2
    25    15    19   2
    26    18    23   1
    27    25    18   1
    28    22    21   2
    29    24    22   1
    30    23    24   1
    31    25    27   1
    32    25    28   1
    33    25    30   1
    34     2    31   1
    35     3    32   1
    36     5    33   1
    37     9    34   1
    38     9    35   1
    39    10    36   1
    40    17    37   1
    41    18    38   1
    42    19    39   1
    43    20    40   1
    44    22    41   1
    45    23    42   1
    46    23    43   1
    47    26    44   1
    48    26    45   1
    49    26    46   1
    50    27    47   1
    51    27    48   1
    52    28    49   1
    53    28    50   1
    54    28    51   1
    55    29    52   1
    56    29    53   1
    57    29    54   1
    58    30    55   1
    59    30    56   1
    60    30    57   1
@<TRIPOS>SUBSTRUCTURE
     1  EML      1

