@<TRIPOS>MOLECULE
3myg_ligand_073
    57    60
SMALL
GAST_HUCK
****
This file was generated by PARSER (from files_GN.cpp)

@<TRIPOS>ATOM
      1 C1         -4.8107   29.7367   77.4858 C.2         1 EML       0.0195
      2 N1         -9.0962   25.8597   79.0320 N.pl3       1 EML      -0.2184
      3 O1         -9.8157   25.7081   84.2376 O.3         1 EML      -0.3892
      4 S1        -10.9398   24.0027   79.0447 S.3         1 EML       0.0206
      5 C2         -7.0691   29.4049   79.6423 C.2         1 EML       0.0730
      6 N2         -6.8866   26.8069   77.3123 N.2         1 EML      -0.3304
      7 C3         -8.0701   29.0528   80.4792 C.2         1 EML       0.0276
      8 N3         -6.7469   28.6012   78.6060 N.pl3       1 EML      -0.2136
      9 C4        -12.8858   22.3810   82.9920 C.3         1 EML      -0.0323
     10 N4         -3.7596   31.6748   77.3376 N.pl3       1 EML      -0.2209
     11 C5         -8.4389   27.0233   79.2495 C.2         1 EML       0.1947
     12 N5         -2.8822   30.7624   77.0554 N.2         1 EML      -0.2182
     13 C6         -7.3978   27.4338   78.3824 C.2         1 EML       0.1969
     14 N6        -11.8616   23.9236   80.4055 N.2         1 EML      -0.3061
     15 C7         -5.7814   28.7207   77.6648 C.2         1 EML       0.0797
     16 N7         -8.7159   27.8880   80.2663 N.2         1 EML      -0.2843
     17 C8         -3.4794   29.5621   77.1276 C.2         1 EML       0.0048
     18 N8        -12.1650   23.6026   83.5279 N.4         1 EML       0.2558
     19 C9         -5.8914   27.5838   76.8599 C.2         1 EML      -0.0220
     20 C10        -4.9467   31.1141   77.6104 C.2         1 EML       0.0562
     21 C11       -10.0755   25.2916   79.7370 C.2         1 EML       0.1479
     22 C12       -10.5234   25.5441   80.9665 C.2         1 EML      -0.0058
     23 C13       -12.2556   24.7885   82.5865 C.3         1 EML       0.0137
     24 C14       -11.5154   24.7244   81.3342 C.2         1 EML       0.0332
     25 C15       -10.8899   23.4290   84.3701 C.3         1 EML       0.0096
     26 C16       -12.1088   21.2598   82.2492 C.3         1 EML      -0.0244
     27 C17       -10.5035   24.7809   85.0762 C.3         1 EML       0.0892
     28 C18        -9.6350   22.8974   83.5976 C.3         1 EML      -0.0168
     29 C19        -8.4886   29.9008   81.5735 C.3         1 EML      -0.0245
     30 C20       -11.1838   22.4271   85.5369 C.3         1 EML      -0.0168
     31 H1         -8.8410   25.3812   78.2265 H           1 EML       0.2327
     32 H2         -9.6894   26.5128   84.7908 H           1 EML       0.2097
     33 H3         -6.5801   30.2566   79.7936 H           1 EML       0.0922
     34 H4        -13.6954   22.6900   82.3242 H           1 EML       0.0812
     35 H5        -13.3970   21.9026   83.8304 H           1 EML       0.0812
     36 H6         -3.5817   32.6316   77.3421 H           1 EML       0.2577
     37 H7         -3.0083   28.6689   76.9791 H           1 EML       0.0660
     38 H8        -12.8307   23.8907   84.2506 H           1 EML       0.2059
     39 H9         -5.3169   27.3665   76.0435 H           1 EML       0.0468
     40 H10        -5.8002   31.6204   77.8390 H           1 EML       0.0974
     41 H11       -10.1278   26.2154   81.5759 H           1 EML       0.0280
     42 H12       -11.9884   25.6932   83.1314 H           1 EML       0.1036
     43 H13       -13.3121   24.9481   82.3345 H           1 EML       0.1036
     44 H14       -12.7968   20.6683   81.6313 H           1 EML       0.0281
     45 H15       -11.6368   20.5725   82.9515 H           1 EML       0.0281
     46 H16       -11.3373   21.6672   81.5977 H           1 EML       0.0281
     47 H17       -11.4014   25.2604   85.4637 H           1 EML       0.0616
     48 H18        -9.8326   24.6119   85.9212 H           1 EML       0.0616
     49 H19        -8.7447   22.9338   84.2372 H           1 EML       0.0288
     50 H20        -9.4259   23.4966   82.7128 H           1 EML       0.0288
     51 H21        -9.7538   21.8599   83.2840 H           1 EML       0.0288
     52 H22        -9.2984   29.4498   82.1497 H           1 EML       0.0384
     53 H23        -8.8421   30.8504   81.1745 H           1 EML       0.0384
     54 H24        -7.6480   30.0847   82.2426 H           1 EML       0.0384
     55 H25       -10.3357   22.3483   86.2216 H           1 EML       0.0288
     56 H26       -11.3812   21.4194   85.1724 H           1 EML       0.0288
     57 H27       -12.0564   22.7538   86.1042 H           1 EML       0.0288
@<TRIPOS>BOND
     1    15     1   1
     2     1    17   1
     3     1    20   2
     4     2    11   1
     5    21     2   1
     6    27     3   1
     7    14     4   1
     8    21     4   1
     9     7     5   2
    10     8     5   1
    11    13     6   2
    12     6    19   1
    13    16     7   1
    14     7    29   1
    15    13     8   1
    16     8    15   1
    17    18     9   1
    18     9    26   1
    19    10    12   1
    20    20    10   1
    21    11    13   1
    22    11    16   2
    23    17    12   2
    24    24    14   2
    25    15    19   2
    26    18    23   1
    27    25    18   1
    28    22    21   2
    29    24    22   1
    30    23    24   1
    31    25    27   1
    32    25    28   1
    33    25    30   1
    34     2    31   1
    35     3    32   1
    36     5    33   1
    37     9    34   1
    38     9    35   1
    39    10    36   1
    40    17    37   1
    41    18    38   1
    42    19    39   1
    43    20    40   1
    44    22    41   1
    45    23    42   1
    46    23    43   1
    47    26    44   1
    48    26    45   1
    49    26    46   1
    50    27    47   1
    51    27    48   1
    52    28    49   1
    53    28    50   1
    54    28    51   1
    55    29    52   1
    56    29    53   1
    57    29    54   1
    58    30    55   1
    59    30    56   1
    60    30    57   1
@<TRIPOS>SUBSTRUCTURE
     1  EML      1

