@<TRIPOS>MOLECULE
3myg_ligand_001
    57    60
SMALL
GAST_HUCK
****
This file was generated by PARSER (from files_GN.cpp)

@<TRIPOS>ATOM
      1 C1         -6.8290   27.7722   76.3773 C.2         1 EML       0.0195
      2 N1         -7.6411   27.4974   82.4221 N.pl3       1 EML      -0.2184
      3 O1         -1.2196   31.6179   84.5783 O.3         1 EML      -0.3892
      4 S1         -7.7485   28.9705   84.5676 S.3         1 EML       0.0206
      5 C2         -8.3216   26.1477   78.5798 C.2         1 EML       0.0730
      6 N2         -6.3373   28.7535   79.7704 N.2         1 EML      -0.3304
      7 C3         -8.8465   25.5581   79.6770 C.2         1 EML       0.0276
      8 N3         -7.5095   27.2198   78.7177 N.pl3       1 EML      -0.2136
      9 C4         -3.2740   31.8719   82.0320 C.3         1 EML      -0.0323
     10 N4         -7.4235   27.5676   74.2677 N.pl3       1 EML      -0.2209
     11 C5         -7.7295   27.1409   81.1135 C.2         1 EML       0.1947
     12 N5         -6.1254   27.5988   74.2719 N.2         1 EML      -0.2182
     13 C6         -7.1942   27.7355   79.9337 C.2         1 EML       0.1969
     14 N6         -6.9443   30.3974   84.4760 N.2         1 EML      -0.3061
     15 C7         -6.8406   27.9178   77.7739 C.2         1 EML       0.0797
     16 N7         -8.5391   26.0684   80.8876 N.2         1 EML      -0.2843
     17 C8         -5.7145   27.7320   75.5414 C.2         1 EML       0.0048
     18 N8         -4.0410   31.8182   83.3395 N.4         1 EML       0.2558
     19 C9         -6.0983   28.8734   78.4610 C.2         1 EML      -0.0220
     20 C10        -7.9098   27.6634   75.5117 C.2         1 EML       0.0562
     21 C11        -7.1382   28.5607   83.0409 C.2         1 EML       0.1479
     22 C12        -6.1754   29.4252   82.7026 C.2         1 EML      -0.0058
     23 C13        -5.5424   31.7840   83.1170 C.3         1 EML       0.0137
     24 C14        -6.1441   30.5086   83.4852 C.2         1 EML       0.0332
     25 C15        -3.5432   32.6582   84.5226 C.3         1 EML       0.0096
     26 C16        -3.4848   33.0970   81.1073 C.3         1 EML      -0.0244
     27 C17        -1.9734   32.8332   84.5451 C.3         1 EML       0.0892
     28 C18        -3.9123   31.8910   85.8377 C.3         1 EML      -0.0168
     29 C19        -9.7291   24.4116   79.5764 C.3         1 EML      -0.0245
     30 C20        -4.1776   34.0976   84.6115 C.3         1 EML      -0.0168
     31 H1         -8.1635   26.9346   83.0117 H           1 EML       0.2327
     32 H2         -1.8436   30.8913   84.3442 H           1 EML       0.2097
     33 H3         -8.5139   25.7745   77.6759 H           1 EML       0.0922
     34 H4         -3.5289   30.9869   81.4451 H           1 EML       0.0812
     35 H5         -2.2068   31.7767   82.2240 H           1 EML       0.0812
     36 H6         -7.9659   27.4877   73.4658 H           1 EML       0.2577
     37 H7         -4.7366   27.7774   75.8429 H           1 EML       0.0660
     38 H8         -3.8118   30.8689   83.6550 H           1 EML       0.2059
     39 H9         -5.4785   29.5787   78.0414 H           1 EML       0.0468
     40 H10        -8.8998   27.6897   75.7573 H           1 EML       0.0974
     41 H11        -5.5133   29.2778   81.9736 H           1 EML       0.0280
     42 H12        -5.7968   31.9860   82.0751 H           1 EML       0.1036
     43 H13        -6.0507   32.5681   83.6702 H           1 EML       0.1036
     44 H14        -2.9700   32.9319   80.1565 H           1 EML       0.0281
     45 H15        -3.0694   34.0006   81.5505 H           1 EML       0.0281
     46 H16        -4.5473   33.2510   80.9016 H           1 EML       0.0281
     47 H17        -1.6504   33.3979   83.6731 H           1 EML       0.0616
     48 H18        -1.6550   33.4044   85.4159 H           1 EML       0.0616
     49 H19        -3.5171   32.3965   86.7224 H           1 EML       0.0288
     50 H20        -3.5170   30.8726   85.8218 H           1 EML       0.0288
     51 H21        -4.9939   31.8226   85.9539 H           1 EML       0.0288
     52 H22       -10.0769   24.0968   80.5611 H           1 EML       0.0384
     53 H23        -9.2017   23.5763   79.1123 H           1 EML       0.0384
     54 H24       -10.5998   24.6672   78.9698 H           1 EML       0.0384
     55 H25        -3.6379   34.7326   85.3196 H           1 EML       0.0288
     56 H26        -5.2156   34.0665   84.9515 H           1 EML       0.0288
     57 H27        -4.1650   34.5907   83.6412 H           1 EML       0.0288
@<TRIPOS>BOND
     1    15     1   1
     2     1    17   1
     3     1    20   2
     4     2    11   1
     5    21     2   1
     6    27     3   1
     7    14     4   1
     8    21     4   1
     9     7     5   2
    10     8     5   1
    11    13     6   2
    12     6    19   1
    13    16     7   1
    14     7    29   1
    15    13     8   1
    16     8    15   1
    17    18     9   1
    18     9    26   1
    19    10    12   1
    20    20    10   1
    21    11    13   1
    22    11    16   2
    23    17    12   2
    24    24    14   2
    25    15    19   2
    26    18    23   1
    27    25    18   1
    28    22    21   2
    29    24    22   1
    30    23    24   1
    31    25    27   1
    32    25    28   1
    33    25    30   1
    34     2    31   1
    35     3    32   1
    36     5    33   1
    37     9    34   1
    38     9    35   1
    39    10    36   1
    40    17    37   1
    41    18    38   1
    42    19    39   1
    43    20    40   1
    44    22    41   1
    45    23    42   1
    46    23    43   1
    47    26    44   1
    48    26    45   1
    49    26    46   1
    50    27    47   1
    51    27    48   1
    52    28    49   1
    53    28    50   1
    54    28    51   1
    55    29    52   1
    56    29    53   1
    57    29    54   1
    58    30    55   1
    59    30    56   1
    60    30    57   1
@<TRIPOS>SUBSTRUCTURE
     1  EML      1

