@<TRIPOS>MOLECULE
3myg_ligand_064
    57    60
SMALL
GAST_HUCK
****
This file was generated by PARSER (from files_GN.cpp)

@<TRIPOS>ATOM
      1 C1          7.2468   43.0527   82.7541 C.2         1 EML       0.0195
      2 N1          1.3394   43.1848   83.5960 N.pl3       1 EML      -0.2184
      3 O1         -7.1855   43.3355   86.5530 O.3         1 EML      -0.3892
      4 S1         -0.2227   41.6395   85.2423 S.3         1 EML       0.0206
      5 C2          5.0773   41.7308   84.5717 C.2         1 EML       0.0730
      6 N2          3.8295   43.9894   82.2041 N.2         1 EML      -0.3304
      7 C3          3.9848   41.2670   85.2175 C.2         1 EML       0.0276
      8 N3          4.9343   42.6587   83.5967 N.pl3       1 EML      -0.2136
      9 C4         -4.8183   41.6786   84.9422 C.3         1 EML      -0.0323
     10 N4          9.3501   42.8332   83.3685 N.pl3       1 EML      -0.2209
     11 C5          2.5596   42.6951   83.9194 C.2         1 EML       0.1947
     12 N5          9.3544   42.8545   82.0715 N.2         1 EML      -0.2182
     13 C6          3.7185   43.1437   83.2413 C.2         1 EML       0.1969
     14 N6         -1.8006   42.1005   85.1732 N.2         1 EML      -0.3061
     15 C7          5.8456   43.2180   82.7710 C.2         1 EML       0.0797
     16 N7          2.7786   41.7617   84.8859 N.2         1 EML      -0.2843
     17 C8          8.0872   42.9944   81.6456 C.2         1 EML       0.0048
     18 N8         -4.5667   43.1680   85.0039 N.4         1 EML       0.2558
     19 C9          5.1338   44.0400   81.8964 C.2         1 EML      -0.0220
     20 C10         8.1017   42.9441   83.8424 C.2         1 EML       0.0562
     21 C11         0.1473   42.8573   84.1041 C.2         1 EML       0.1479
     22 C12        -0.9591   43.5004   83.7384 C.2         1 EML      -0.0058
     23 C13        -3.3887   43.6270   84.1665 C.3         1 EML       0.0137
     24 C14        -2.0559   43.0679   84.3789 C.2         1 EML       0.0332
     25 C15        -4.7390   43.8376   86.3790 C.3         1 EML       0.0096
     26 C16        -4.6548   40.9824   83.5678 C.3         1 EML      -0.0244
     27 C17        -5.9281   43.2370   87.2210 C.3         1 EML       0.0892
     28 C18        -5.0833   45.3578   86.1856 C.3         1 EML      -0.0168
     29 C19         4.0661   40.2305   86.2253 C.3         1 EML      -0.0245
     30 C20        -3.4627   43.7316   87.2791 C.3         1 EML      -0.0168
     31 H1          1.3321   43.8720   82.9103 H           1 EML       0.2327
     32 H2         -7.8045   42.8213   87.1123 H           1 EML       0.2097
     33 H3          5.9701   41.3544   84.7864 H           1 EML       0.0922
     34 H4         -5.8575   41.4891   85.2127 H           1 EML       0.0812
     35 H5         -4.2018   41.1557   85.6710 H           1 EML       0.0812
     36 H6         10.1416   42.7585   83.9255 H           1 EML       0.2577
     37 H7          7.7994   43.0328   80.6646 H           1 EML       0.0660
     38 H8         -5.3613   43.5283   84.4767 H           1 EML       0.2059
     39 H9          5.5307   44.6117   81.1465 H           1 EML       0.0468
     40 H10         7.8461   42.9809   84.8304 H           1 EML       0.0974
     41 H11        -0.9675   44.2419   83.0737 H           1 EML       0.0280
     42 H12        -3.2963   44.7084   84.2350 H           1 EML       0.1036
     43 H13        -3.6398   43.4436   83.1192 H           1 EML       0.1036
     44 H14        -5.0051   39.9515   83.6418 H           1 EML       0.0281
     45 H15        -3.6080   40.9549   83.2589 H           1 EML       0.0281
     46 H16        -5.2386   41.5028   82.8024 H           1 EML       0.0281
     47 H17        -5.7435   42.1844   87.4587 H           1 EML       0.0616
     48 H18        -6.0359   43.7618   88.1767 H           1 EML       0.0616
     49 H19        -5.4166   45.8291   87.1135 H           1 EML       0.0288
     50 H20        -5.8782   45.4684   85.4453 H           1 EML       0.0288
     51 H21        -4.2210   45.9288   85.8486 H           1 EML       0.0288
     52 H22         3.0796   39.9803   86.6224 H           1 EML       0.0384
     53 H23         4.6939   40.5599   87.0546 H           1 EML       0.0384
     54 H24         4.4956   39.3264   85.7909 H           1 EML       0.0384
     55 H25        -3.6389   44.1630   88.2680 H           1 EML       0.0288
     56 H26        -2.6212   44.2627   86.8341 H           1 EML       0.0288
     57 H27        -3.1716   42.6911   87.4209 H           1 EML       0.0288
@<TRIPOS>BOND
     1    15     1   1
     2     1    17   1
     3     1    20   2
     4     2    11   1
     5    21     2   1
     6    27     3   1
     7    14     4   1
     8    21     4   1
     9     7     5   2
    10     8     5   1
    11    13     6   2
    12     6    19   1
    13    16     7   1
    14     7    29   1
    15    13     8   1
    16     8    15   1
    17    18     9   1
    18     9    26   1
    19    10    12   1
    20    20    10   1
    21    11    13   1
    22    11    16   2
    23    17    12   2
    24    24    14   2
    25    15    19   2
    26    18    23   1
    27    25    18   1
    28    22    21   2
    29    24    22   1
    30    23    24   1
    31    25    27   1
    32    25    28   1
    33    25    30   1
    34     2    31   1
    35     3    32   1
    36     5    33   1
    37     9    34   1
    38     9    35   1
    39    10    36   1
    40    17    37   1
    41    18    38   1
    42    19    39   1
    43    20    40   1
    44    22    41   1
    45    23    42   1
    46    23    43   1
    47    26    44   1
    48    26    45   1
    49    26    46   1
    50    27    47   1
    51    27    48   1
    52    28    49   1
    53    28    50   1
    54    28    51   1
    55    29    52   1
    56    29    53   1
    57    29    54   1
    58    30    55   1
    59    30    56   1
    60    30    57   1
@<TRIPOS>SUBSTRUCTURE
     1  EML      1

