@<TRIPOS>MOLECULE
3myg_ligand_063
    57    60
SMALL
GAST_HUCK
****
This file was generated by PARSER (from files_GN.cpp)

@<TRIPOS>ATOM
      1 C1         -8.2416   27.6500   75.3278 C.2         1 EML       0.0195
      2 N1         -6.3762   29.4232   80.7379 N.pl3       1 EML      -0.2184
      3 O1         -6.3279   28.0712   88.6866 O.3         1 EML      -0.3892
      4 S1         -5.1894   30.5313   82.8103 S.3         1 EML       0.0206
      5 C2         -8.3380   26.7190   78.2965 C.2         1 EML       0.0730
      6 N2         -6.6199   29.7199   77.7796 N.2         1 EML      -0.3304
      7 C3         -8.3115   26.5253   79.6346 C.2         1 EML       0.0276
      8 N3         -7.7195   27.7958   77.7612 N.pl3       1 EML      -0.2136
      9 C4         -8.5458   30.5709   85.9337 C.3         1 EML      -0.0323
     10 N4         -9.0319   26.2115   73.8539 N.pl3       1 EML      -0.2209
     11 C5         -7.0206   28.5326   79.9402 C.2         1 EML       0.1947
     12 N5         -9.4113   27.3841   73.4531 N.2         1 EML      -0.2182
     13 C6         -7.0753   28.7087   78.5351 C.2         1 EML       0.1969
     14 N6         -5.6672   29.9746   84.2904 N.2         1 EML      -0.3061
     15 C7         -7.6687   28.2301   76.4835 C.2         1 EML       0.0797
     16 N7         -7.6563   27.4206   80.4038 N.2         1 EML      -0.2843
     17 C8         -8.9341   28.2993   74.3144 C.2         1 EML       0.0048
     18 N8         -7.7985   29.3785   86.5120 N.4         1 EML       0.2558
     19 C9         -6.9809   29.4428   76.5182 C.2         1 EML      -0.0220
     20 C10        -8.3065   26.3103   74.9780 C.2         1 EML       0.0562
     21 C11        -6.2723   29.4481   82.0751 C.2         1 EML       0.1479
     22 C12        -6.9449   28.7718   83.0059 C.2         1 EML      -0.0058
     23 C13        -7.1506   28.4837   85.4678 C.3         1 EML       0.0137
     24 C14        -6.5799   29.0813   84.2618 C.2         1 EML       0.0332
     25 C15        -8.5232   28.6304   87.6438 C.3         1 EML       0.0096
     26 C16        -7.8853   31.9053   86.3598 C.3         1 EML      -0.0244
     27 C17        -7.5995   27.5436   88.3141 C.3         1 EML       0.0892
     28 C18        -9.8235   27.8930   87.1639 C.3         1 EML      -0.0168
     29 C19        -8.9790   25.4019   80.2586 C.3         1 EML      -0.0245
     30 C20        -8.9165   29.6201   88.8020 C.3         1 EML      -0.0168
     31 H1         -5.9089   30.1374   80.2728 H           1 EML       0.2327
     32 H2         -5.8716   27.3297   89.1408 H           1 EML       0.2097
     33 H3         -8.8308   26.0830   77.7142 H           1 EML       0.0922
     34 H4         -9.5891   30.6141   86.2468 H           1 EML       0.0812
     35 H5         -8.5823   30.5577   84.8413 H           1 EML       0.0812
     36 H6         -9.2725   25.3787   73.4216 H           1 EML       0.2577
     37 H7         -9.1128   29.3000   74.2538 H           1 EML       0.0660
     38 H8         -6.9928   29.7954   86.9876 H           1 EML       0.2059
     39 H9         -6.7784   30.0395   75.7116 H           1 EML       0.0468
     40 H10        -7.8838   25.5313   75.4799 H           1 EML       0.0974
     41 H11        -7.6796   28.1352   82.8064 H           1 EML       0.0280
     42 H12        -7.8725   27.7235   85.1605 H           1 EML       0.1036
     43 H13        -6.3196   27.9515   85.9384 H           1 EML       0.1036
     44 H14        -8.4355   32.7445   85.9255 H           1 EML       0.0281
     45 H15        -6.8480   31.9495   86.0179 H           1 EML       0.0281
     46 H16        -7.9003   32.0116   87.4487 H           1 EML       0.0281
     47 H17        -8.0645   27.1363   89.2169 H           1 EML       0.0616
     48 H18        -7.4304   26.6996   87.6420 H           1 EML       0.0616
     49 H19       -10.3748   27.4904   88.0172 H           1 EML       0.0288
     50 H20        -9.5896   27.0570   86.5034 H           1 EML       0.0288
     51 H21       -10.4916   28.5657   86.6259 H           1 EML       0.0288
     52 H22        -8.8403   25.4067   81.3414 H           1 EML       0.0384
     53 H23        -8.5763   24.4677   79.8651 H           1 EML       0.0384
     54 H24       -10.0487   25.4476   80.0494 H           1 EML       0.0384
     55 H25        -9.3041   29.0858   89.6746 H           1 EML       0.0288
     56 H26        -9.6954   30.3166   88.4938 H           1 EML       0.0288
     57 H27        -8.0418   30.1939   89.1195 H           1 EML       0.0288
@<TRIPOS>BOND
     1    15     1   1
     2     1    17   1
     3     1    20   2
     4     2    11   1
     5    21     2   1
     6    27     3   1
     7    14     4   1
     8    21     4   1
     9     7     5   2
    10     8     5   1
    11    13     6   2
    12     6    19   1
    13    16     7   1
    14     7    29   1
    15    13     8   1
    16     8    15   1
    17    18     9   1
    18     9    26   1
    19    10    12   1
    20    20    10   1
    21    11    13   1
    22    11    16   2
    23    17    12   2
    24    24    14   2
    25    15    19   2
    26    18    23   1
    27    25    18   1
    28    22    21   2
    29    24    22   1
    30    23    24   1
    31    25    27   1
    32    25    28   1
    33    25    30   1
    34     2    31   1
    35     3    32   1
    36     5    33   1
    37     9    34   1
    38     9    35   1
    39    10    36   1
    40    17    37   1
    41    18    38   1
    42    19    39   1
    43    20    40   1
    44    22    41   1
    45    23    42   1
    46    23    43   1
    47    26    44   1
    48    26    45   1
    49    26    46   1
    50    27    47   1
    51    27    48   1
    52    28    49   1
    53    28    50   1
    54    28    51   1
    55    29    52   1
    56    29    53   1
    57    29    54   1
    58    30    55   1
    59    30    56   1
    60    30    57   1
@<TRIPOS>SUBSTRUCTURE
     1  EML      1

