@<TRIPOS>MOLECULE
3myg_ligand_043
    57    60
SMALL
GAST_HUCK
****
This file was generated by PARSER (from files_GN.cpp)

@<TRIPOS>ATOM
      1 C1         -9.0295   28.0231   85.3355 C.2         1 EML       0.0195
      2 N1         -3.6488   30.8215   85.9515 N.pl3       1 EML      -0.2184
      3 O1         -1.3825   31.5249   82.7285 O.3         1 EML      -0.3892
      4 S1         -5.0153   33.0006   85.0098 S.3         1 EML       0.0206
      5 C2         -6.3204   27.8347   86.9250 C.2         1 EML       0.0730
      6 N2         -6.4534   30.3824   84.5355 N.2         1 EML      -0.3304
      7 C3         -5.0847   27.9247   87.4659 C.2         1 EML       0.0276
      8 N3         -6.6875   28.6962   85.9472 N.pl3       1 EML      -0.2136
      9 C4         -1.3377   35.6773   81.3061 C.3         1 EML      -0.0323
     10 N4        -10.5191   26.4229   85.6408 N.pl3       1 EML      -0.2209
     11 C5         -4.5944   29.8684   86.1417 C.2         1 EML       0.1947
     12 N5        -11.1948   27.4915   85.3484 N.2         1 EML      -0.2182
     13 C6         -5.8716   29.6996   85.5338 C.2         1 EML       0.1969
     14 N6         -4.0130   34.0205   84.1939 N.2         1 EML      -0.3061
     15 C7         -7.8394   28.7825   85.2393 C.2         1 EML       0.0797
     16 N7         -4.2733   28.9227   87.0651 N.2         1 EML      -0.2843
     17 C8        -10.3274   28.4942   85.1447 C.2         1 EML       0.0048
     18 N8         -2.1120   34.5364   81.9407 N.4         1 EML       0.2558
     19 C9         -7.6633   29.8437   84.3519 C.2         1 EML      -0.0220
     20 C10        -9.2021   26.6788   85.6479 C.2         1 EML       0.0562
     21 C11        -3.6812   31.9723   85.2798 C.2         1 EML       0.1479
     22 C12        -2.5554   32.5596   84.8813 C.2         1 EML      -0.0058
     23 C13        -1.7861   34.4152   83.4145 C.3         1 EML       0.0137
     24 C14        -2.7814   33.6769   84.1804 C.2         1 EML       0.0332
     25 C15        -2.1427   33.2506   81.0849 C.3         1 EML       0.0096
     26 C16        -1.4891   37.0638   81.9790 C.3         1 EML      -0.0244
     27 C17        -2.4488   31.9218   81.8695 C.3         1 EML       0.0892
     28 C18        -0.8258   32.9993   80.2631 C.3         1 EML      -0.0168
     29 C19        -4.6315   26.9992   88.4844 C.3         1 EML      -0.0245
     30 C20        -3.3351   33.3913   80.0722 C.3         1 EML      -0.0168
     31 H1         -2.7964   30.6263   86.3731 H           1 EML       0.2327
     32 H2         -1.7591   30.8189   83.2973 H           1 EML       0.2097
     33 H3         -6.9468   27.1330   87.2392 H           1 EML       0.0922
     34 H4         -1.6662   35.8417   80.2793 H           1 EML       0.0812
     35 H5         -0.2716   35.4274   81.2572 H           1 EML       0.0812
     36 H6        -10.9115   25.5548   85.8250 H           1 EML       0.2577
     37 H7        -10.5881   29.4543   84.9159 H           1 EML       0.0660
     38 H8         -3.0812   34.8681   81.9306 H           1 EML       0.2059
     39 H9         -8.3324   30.1657   83.6499 H           1 EML       0.0468
     40 H10        -8.4699   25.9866   85.8214 H           1 EML       0.0974
     41 H11        -1.6503   32.1692   85.0221 H           1 EML       0.0280
     42 H12        -1.7485   35.3951   83.8957 H           1 EML       0.1036
     43 H13        -0.7905   33.9920   83.5302 H           1 EML       0.1036
     44 H14        -1.1007   37.8426   81.3129 H           1 EML       0.0281
     45 H15        -0.9245   37.1174   82.9098 H           1 EML       0.0281
     46 H16        -2.5380   37.2717   82.1854 H           1 EML       0.0281
     47 H17        -3.3644   32.0210   82.4535 H           1 EML       0.0616
     48 H18        -2.6057   31.0859   81.1769 H           1 EML       0.0616
     49 H19        -0.8537   32.0385   79.7464 H           1 EML       0.0288
     50 H20         0.0325   33.0054   80.9265 H           1 EML       0.0288
     51 H21        -0.6701   33.7610   79.5003 H           1 EML       0.0288
     52 H22        -3.6080   27.2207   88.7959 H           1 EML       0.0384
     53 H23        -4.6584   25.9780   88.0998 H           1 EML       0.0384
     54 H24        -5.2771   27.0650   89.3612 H           1 EML       0.0384
     55 H25        -3.4310   32.5094   79.4342 H           1 EML       0.0288
     56 H26        -3.2029   34.2404   79.4098 H           1 EML       0.0288
     57 H27        -4.2756   33.5247   80.6129 H           1 EML       0.0288
@<TRIPOS>BOND
     1    15     1   1
     2     1    17   1
     3     1    20   2
     4     2    11   1
     5    21     2   1
     6    27     3   1
     7    14     4   1
     8    21     4   1
     9     7     5   2
    10     8     5   1
    11    13     6   2
    12     6    19   1
    13    16     7   1
    14     7    29   1
    15    13     8   1
    16     8    15   1
    17    18     9   1
    18     9    26   1
    19    10    12   1
    20    20    10   1
    21    11    13   1
    22    11    16   2
    23    17    12   2
    24    24    14   2
    25    15    19   2
    26    18    23   1
    27    25    18   1
    28    22    21   2
    29    24    22   1
    30    23    24   1
    31    25    27   1
    32    25    28   1
    33    25    30   1
    34     2    31   1
    35     3    32   1
    36     5    33   1
    37     9    34   1
    38     9    35   1
    39    10    36   1
    40    17    37   1
    41    18    38   1
    42    19    39   1
    43    20    40   1
    44    22    41   1
    45    23    42   1
    46    23    43   1
    47    26    44   1
    48    26    45   1
    49    26    46   1
    50    27    47   1
    51    27    48   1
    52    28    49   1
    53    28    50   1
    54    28    51   1
    55    29    52   1
    56    29    53   1
    57    29    54   1
    58    30    55   1
    59    30    56   1
    60    30    57   1
@<TRIPOS>SUBSTRUCTURE
     1  EML      1

