@<TRIPOS>MOLECULE
3myg_ligand_075
    57    60
SMALL
GAST_HUCK
****
This file was generated by PARSER (from files_GN.cpp)

@<TRIPOS>ATOM
      1 C1         -6.7675   28.2067   75.7502 C.2         1 EML       0.0195
      2 N1         -7.3094   27.7842   81.8210 N.pl3       1 EML      -0.2184
      3 O1         -7.6250   20.7854   82.9553 O.3         1 EML      -0.3892
      4 S1         -8.7158   26.4048   83.5542 S.3         1 EML       0.0206
      5 C2         -5.9139   29.7046   78.4413 C.2         1 EML       0.0730
      6 N2         -8.1337   27.0432   78.8526 N.2         1 EML      -0.3304
      7 C3         -5.5919   30.1103   79.6905 C.2         1 EML       0.0276
      8 N3         -6.7158   28.6271   78.2592 N.pl3       1 EML      -0.2136
      9 C4         -8.0203   22.4744   79.6547 C.3         1 EML      -0.0323
     10 N4         -5.7541   28.7665   73.8715 N.pl3       1 EML      -0.2209
     11 C5         -6.9577   28.3549   80.6376 C.2         1 EML       0.1947
     12 N5         -6.8080   28.1130   73.5131 N.2         1 EML      -0.2182
     13 C6         -7.2952   27.9746   79.3014 C.2         1 EML       0.1969
     14 N6         -9.3668   25.0165   82.9578 N.2         1 EML      -0.3061
     15 C7         -7.1272   28.0132   77.1202 C.2         1 EML       0.0797
     16 N7         -6.1350   29.4260   80.7296 N.2         1 EML      -0.2843
     17 C8         -7.4458   27.7212   74.6249 C.2         1 EML       0.0048
     18 N8         -9.2823   22.4301   80.4790 N.4         1 EML       0.2558
     19 C9         -8.0476   27.0444   77.5219 C.2         1 EML      -0.0220
     20 C10        -5.6606   28.8467   75.2082 C.2         1 EML       0.0562
     21 C11        -7.9561   26.6476   82.0568 C.2         1 EML       0.1479
     22 C12        -8.0396   25.5491   81.3250 C.2         1 EML      -0.0058
     23 C13        -9.7370   23.8014   80.9327 C.3         1 EML       0.0137
     24 C14        -8.9338   24.6765   81.7932 C.2         1 EML       0.0332
     25 C15        -9.5554   21.2240   81.3872 C.3         1 EML       0.0096
     26 C16        -6.6539   22.5545   80.3964 C.3         1 EML      -0.0244
     27 C17        -8.9378   21.3156   82.8267 C.3         1 EML       0.0892
     28 C18        -9.0885   19.8830   80.7103 C.3         1 EML      -0.0168
     29 C19        -4.7112   31.2398   79.9248 C.3         1 EML      -0.0245
     30 C20       -11.1162   21.0553   81.4974 C.3         1 EML      -0.0168
     31 H1         -7.0584   28.2806   82.6228 H           1 EML       0.2327
     32 H2         -7.1697   21.4052   83.5761 H           1 EML       0.2097
     33 H3         -5.5709   30.2042   77.6655 H           1 EML       0.0922
     34 H4         -8.0793   23.3199   78.9785 H           1 EML       0.0812
     35 H5         -8.0207   21.6310   78.9692 H           1 EML       0.0812
     36 H6         -5.1122   29.1562   73.2547 H           1 EML       0.2577
     37 H7         -8.2938   27.1507   74.6289 H           1 EML       0.0660
     38 H8         -9.9689   22.2597   79.7387 H           1 EML       0.2059
     39 H9         -8.5734   26.3888   76.9322 H           1 EML       0.0468
     40 H10        -4.8882   29.2934   75.7157 H           1 EML       0.0974
     41 H11        -7.5888   25.4486   80.4517 H           1 EML       0.0280
     42 H12       -10.7273   23.6949   81.4004 H           1 EML       0.1036
     43 H13        -9.9585   24.3729   80.0117 H           1 EML       0.1036
     44 H14        -6.0377   21.6972   80.1166 H           1 EML       0.0281
     45 H15        -6.7753   22.6125   81.4957 H           1 EML       0.0281
     46 H16        -6.1154   23.4395   80.0917 H           1 EML       0.0281
     47 H17        -8.9734   22.3379   83.2020 H           1 EML       0.0616
     48 H18        -9.5359   20.7300   83.5206 H           1 EML       0.0616
     49 H19        -9.3333   19.0219   81.3246 H           1 EML       0.0288
     50 H20        -8.0029   19.8514   80.6043 H           1 EML       0.0288
     51 H21        -9.5361   19.7519   79.7265 H           1 EML       0.0288
     52 H22        -4.5873   31.4477   80.9865 H           1 EML       0.0384
     53 H23        -5.1137   32.1294   79.4489 H           1 EML       0.0384
     54 H24        -3.7191   31.0454   79.5148 H           1 EML       0.0384
     55 H25       -11.4216   20.0771   81.8844 H           1 EML       0.0288
     56 H26       -11.6001   21.1847   80.5319 H           1 EML       0.0288
     57 H27       -11.5513   21.7823   82.1562 H           1 EML       0.0288
@<TRIPOS>BOND
     1    15     1   1
     2     1    17   1
     3     1    20   2
     4     2    11   1
     5    21     2   1
     6    27     3   1
     7    14     4   1
     8    21     4   1
     9     7     5   2
    10     8     5   1
    11    13     6   2
    12     6    19   1
    13    16     7   1
    14     7    29   1
    15    13     8   1
    16     8    15   1
    17    18     9   1
    18     9    26   1
    19    10    12   1
    20    20    10   1
    21    11    13   1
    22    11    16   2
    23    17    12   2
    24    24    14   2
    25    15    19   2
    26    18    23   1
    27    25    18   1
    28    22    21   2
    29    24    22   1
    30    23    24   1
    31    25    27   1
    32    25    28   1
    33    25    30   1
    34     2    31   1
    35     3    32   1
    36     5    33   1
    37     9    34   1
    38     9    35   1
    39    10    36   1
    40    17    37   1
    41    18    38   1
    42    19    39   1
    43    20    40   1
    44    22    41   1
    45    23    42   1
    46    23    43   1
    47    26    44   1
    48    26    45   1
    49    26    46   1
    50    27    47   1
    51    27    48   1
    52    28    49   1
    53    28    50   1
    54    28    51   1
    55    29    52   1
    56    29    53   1
    57    29    54   1
    58    30    55   1
    59    30    56   1
    60    30    57   1
@<TRIPOS>SUBSTRUCTURE
     1  EML      1

