@<TRIPOS>MOLECULE
3myg_ligand_011
    57    60
SMALL
GAST_HUCK
****
This file was generated by PARSER (from files_GN.cpp)

@<TRIPOS>ATOM
      1 C1         -7.2070   28.4163   79.5416 C.2         1 EML       0.0195
      2 N1         -3.1546   32.9078   78.9192 N.pl3       1 EML      -0.2184
      3 O1         -2.6127   36.1241   86.8604 O.3         1 EML      -0.3892
      4 S1         -1.1100   34.0904   79.9611 S.3         1 EML       0.0206
      5 C2         -5.7091   30.0543   77.3781 C.2         1 EML       0.0730
      6 N2         -5.0274   30.9888   80.6743 N.2         1 EML      -0.3304
      7 C3         -4.9277   30.8473   76.6146 C.2         1 EML       0.0276
      8 N3         -5.6816   30.1975   78.7197 N.pl3       1 EML      -0.2136
      9 C4         -0.2888   34.8691   84.6836 C.3         1 EML      -0.0323
     10 N4         -8.9042   27.1445   78.9906 N.pl3       1 EML      -0.2209
     11 C5         -4.0673   31.9699   78.5633 C.2         1 EML       0.1947
     12 N5         -8.2426   26.4905   79.8967 N.2         1 EML      -0.2182
     13 C6         -4.8835   31.1027   79.3463 C.2         1 EML       0.1969
     14 N6         -1.0337   34.0961   81.6042 N.2         1 EML      -0.3061
     15 C7         -6.3178   29.4925   79.6742 C.2         1 EML       0.0797
     16 N7         -4.1512   31.7675   77.2169 N.2         1 EML      -0.2843
     17 C8         -7.1942   27.2370   80.2729 C.2         1 EML       0.0048
     18 N8         -1.7866   34.7118   84.5227 N.4         1 EML       0.2558
     19 C9         -5.9093   30.0034   80.8973 C.2         1 EML      -0.0220
     20 C10        -8.3132   28.3201   78.7155 C.2         1 EML       0.0562
     21 C11        -2.6145   33.3044   80.0684 C.2         1 EML       0.1479
     22 C12        -3.0026   33.2207   81.3422 C.2         1 EML      -0.0058
     23 C13        -2.1466   33.5270   83.6513 C.3         1 EML       0.0137
     24 C14        -2.0737   33.6702   82.1997 C.2         1 EML       0.0332
     25 C15        -2.6051   36.0005   84.3711 C.3         1 EML       0.0096
     26 C16         0.3054   33.9324   85.7635 C.3         1 EML      -0.0244
     27 C17        -2.4595   36.8864   85.6669 C.3         1 EML       0.0892
     28 C18        -4.1369   35.6908   84.2351 C.3         1 EML      -0.0168
     29 C19        -4.8763   30.7115   75.1737 C.3         1 EML      -0.0245
     30 C20        -2.1947   36.8752   83.1373 C.3         1 EML      -0.0168
     31 H1         -2.7558   33.3478   78.1551 H           1 EML       0.2327
     32 H2         -2.4799   36.7635   87.5935 H           1 EML       0.2097
     33 H3         -6.2728   29.3495   76.9577 H           1 EML       0.0922
     34 H4         -0.0196   35.8742   84.9999 H           1 EML       0.0812
     35 H5          0.2405   34.7072   83.7444 H           1 EML       0.0812
     36 H6         -9.7213   26.8475   78.5690 H           1 EML       0.2577
     37 H7         -6.4910   26.9638   80.9636 H           1 EML       0.0660
     38 H8         -2.0801   34.3831   85.4452 H           1 EML       0.2059
     39 H9         -6.2391   29.6943   81.8151 H           1 EML       0.0468
     40 H10        -8.6535   29.0300   78.0598 H           1 EML       0.0974
     41 H11        -3.8804   32.8895   81.6376 H           1 EML       0.0280
     42 H12        -3.1505   33.2022   83.9328 H           1 EML       0.1036
     43 H13        -1.5182   32.6734   83.9050 H           1 EML       0.1036
     44 H14         1.3719   34.1345   85.8811 H           1 EML       0.0281
     45 H15         0.1856   32.8831   85.4936 H           1 EML       0.0281
     46 H16        -0.1832   34.1064   86.7243 H           1 EML       0.0281
     47 H17        -1.4853   37.3721   85.7135 H           1 EML       0.0616
     48 H18        -3.2000   37.6899   85.6832 H           1 EML       0.0616
     49 H19        -4.7374   36.6052   84.2339 H           1 EML       0.0288
     50 H20        -4.4724   35.0615   85.0595 H           1 EML       0.0288
     51 H21        -4.3496   35.1723   83.3018 H           1 EML       0.0288
     52 H22        -4.1473   31.3967   74.7415 H           1 EML       0.0384
     53 H23        -5.8538   30.9379   74.7455 H           1 EML       0.0384
     54 H24        -4.5899   29.6959   74.8907 H           1 EML       0.0384
     55 H25        -2.7087   37.8378   83.1542 H           1 EML       0.0288
     56 H26        -2.4516   36.3878   82.1985 H           1 EML       0.0288
     57 H27        -1.1230   37.0734   83.1324 H           1 EML       0.0288
@<TRIPOS>BOND
     1    15     1   1
     2     1    17   1
     3     1    20   2
     4     2    11   1
     5    21     2   1
     6    27     3   1
     7    14     4   1
     8    21     4   1
     9     7     5   2
    10     8     5   1
    11    13     6   2
    12     6    19   1
    13    16     7   1
    14     7    29   1
    15    13     8   1
    16     8    15   1
    17    18     9   1
    18     9    26   1
    19    10    12   1
    20    20    10   1
    21    11    13   1
    22    11    16   2
    23    17    12   2
    24    24    14   2
    25    15    19   2
    26    18    23   1
    27    25    18   1
    28    22    21   2
    29    24    22   1
    30    23    24   1
    31    25    27   1
    32    25    28   1
    33    25    30   1
    34     2    31   1
    35     3    32   1
    36     5    33   1
    37     9    34   1
    38     9    35   1
    39    10    36   1
    40    17    37   1
    41    18    38   1
    42    19    39   1
    43    20    40   1
    44    22    41   1
    45    23    42   1
    46    23    43   1
    47    26    44   1
    48    26    45   1
    49    26    46   1
    50    27    47   1
    51    27    48   1
    52    28    49   1
    53    28    50   1
    54    28    51   1
    55    29    52   1
    56    29    53   1
    57    29    54   1
    58    30    55   1
    59    30    56   1
    60    30    57   1
@<TRIPOS>SUBSTRUCTURE
     1  EML      1

