@<TRIPOS>MOLECULE
3myg_ligand_005
    57    60
SMALL
GAST_HUCK
****
This file was generated by PARSER (from files_GN.cpp)

@<TRIPOS>ATOM
      1 C1         -7.7609   27.7305   75.0818 C.2         1 EML       0.0195
      2 N1         -4.3339   30.8515   78.8443 N.pl3       1 EML      -0.2184
      3 O1          1.3956   34.8019   81.7178 O.3         1 EML      -0.3892
      4 S1         -5.1011   32.3761   80.9956 S.3         1 EML       0.0206
      5 C2         -7.9536   29.1389   77.8064 C.2         1 EML       0.0730
      6 N2         -4.7653   29.2144   76.3866 N.2         1 EML      -0.3304
      7 C3         -7.8356   29.8024   78.9776 C.2         1 EML       0.0276
      8 N3         -6.8785   29.0273   77.0024 N.pl3       1 EML      -0.2136
      9 C4         -1.5659   34.2131   83.8295 C.3         1 EML      -0.0323
     10 N4         -9.0140   26.2241   74.0781 N.pl3       1 EML      -0.2209
     11 C5         -5.5210   30.2713   78.5285 C.2         1 EML       0.1947
     12 N5         -9.6162   27.3620   73.9142 N.2         1 EML      -0.2182
     13 C6         -5.6682   29.5357   77.3300 C.2         1 EML       0.1969
     14 N6         -3.8595   33.2995   81.5840 N.2         1 EML      -0.3061
     15 C7         -6.7560   28.3795   75.8259 C.2         1 EML       0.0797
     16 N7         -6.6439   30.3542   79.2975 N.2         1 EML      -0.2843
     17 C8         -8.8886   28.3131   74.5179 C.2         1 EML       0.0048
     18 N8         -1.5815   34.8488   82.4545 N.4         1 EML       0.2558
     19 C9         -5.4162   28.4909   75.4599 C.2         1 EML      -0.0220
     20 C10        -7.8733   26.3843   74.7710 C.2         1 EML       0.0562
     21 C11        -4.0389   31.6753   79.8604 C.2         1 EML       0.1479
     22 C12        -2.8070   32.1504   80.0435 C.2         1 EML      -0.0058
     23 C13        -1.5180   33.8302   81.3302 C.3         1 EML       0.0137
     24 C14        -2.7339   33.0754   81.0208 C.2         1 EML       0.0332
     25 C15        -0.6664   36.0868   82.2820 C.3         1 EML       0.0096
     26 C16        -2.4157   32.9390   84.0759 C.3         1 EML      -0.0244
     27 C17         0.5685   35.8891   81.3218 C.3         1 EML       0.0892
     28 C18        -0.0873   36.6901   83.6189 C.3         1 EML      -0.0168
     29 C19        -8.9523   29.9153   79.8910 C.3         1 EML      -0.0245
     30 C20        -1.5674   37.2143   81.6846 C.3         1 EML      -0.0168
     31 H1         -3.6012   30.6792   78.2312 H           1 EML       0.2327
     32 H2          2.2264   34.9236   81.2110 H           1 EML       0.2097
     33 H3         -8.8152   28.7050   77.5615 H           1 EML       0.0922
     34 H4         -1.9716   34.9460   84.5390 H           1 EML       0.0812
     35 H5         -0.5317   34.0014   84.1316 H           1 EML       0.0812
     36 H6         -9.3552   25.3734   73.7576 H           1 EML       0.2577
     37 H7         -9.1224   29.3039   74.5443 H           1 EML       0.0660
     38 H8         -2.5303   35.2308   82.4002 H           1 EML       0.2059
     39 H9         -4.9951   28.1071   74.6114 H           1 EML       0.0468
     40 H10        -7.2314   25.6436   75.0535 H           1 EML       0.0974
     41 H11        -2.0268   31.8986   79.4741 H           1 EML       0.0280
     42 H12        -0.7017   33.1275   81.5450 H           1 EML       0.1036
     43 H13        -1.2790   34.3279   80.3843 H           1 EML       0.1036
     44 H14        -2.4567   32.7182   85.1495 H           1 EML       0.0281
     45 H15        -1.9833   32.0710   83.5614 H           1 EML       0.0281
     46 H16        -3.4420   33.1043   83.7029 H           1 EML       0.0281
     47 H17         0.2500   35.7097   80.2929 H           1 EML       0.0616
     48 H18         1.1941   36.7860   81.2901 H           1 EML       0.0616
     49 H19         0.4600   37.6177   83.4338 H           1 EML       0.0288
     50 H20         0.6056   35.9932   84.0920 H           1 EML       0.0288
     51 H21        -0.8880   36.9204   84.3228 H           1 EML       0.0288
     52 H22        -8.6774   30.4595   80.7957 H           1 EML       0.0384
     53 H23        -9.2893   28.9165   80.1808 H           1 EML       0.0384
     54 H24        -9.7780   30.4441   79.4063 H           1 EML       0.0384
     55 H25        -1.0063   38.1393   81.5342 H           1 EML       0.0288
     56 H26        -2.4073   37.4295   82.3509 H           1 EML       0.0288
     57 H27        -1.9730   36.9133   80.7203 H           1 EML       0.0288
@<TRIPOS>BOND
     1    15     1   1
     2     1    17   1
     3     1    20   2
     4     2    11   1
     5    21     2   1
     6    27     3   1
     7    14     4   1
     8    21     4   1
     9     7     5   2
    10     8     5   1
    11    13     6   2
    12     6    19   1
    13    16     7   1
    14     7    29   1
    15    13     8   1
    16     8    15   1
    17    18     9   1
    18     9    26   1
    19    10    12   1
    20    20    10   1
    21    11    13   1
    22    11    16   2
    23    17    12   2
    24    24    14   2
    25    15    19   2
    26    18    23   1
    27    25    18   1
    28    22    21   2
    29    24    22   1
    30    23    24   1
    31    25    27   1
    32    25    28   1
    33    25    30   1
    34     2    31   1
    35     3    32   1
    36     5    33   1
    37     9    34   1
    38     9    35   1
    39    10    36   1
    40    17    37   1
    41    18    38   1
    42    19    39   1
    43    20    40   1
    44    22    41   1
    45    23    42   1
    46    23    43   1
    47    26    44   1
    48    26    45   1
    49    26    46   1
    50    27    47   1
    51    27    48   1
    52    28    49   1
    53    28    50   1
    54    28    51   1
    55    29    52   1
    56    29    53   1
    57    29    54   1
    58    30    55   1
    59    30    56   1
    60    30    57   1
@<TRIPOS>SUBSTRUCTURE
     1  EML      1

