@<TRIPOS>MOLECULE
3myg_ligand_015
    57    60
SMALL
GAST_HUCK
****
This file was generated by PARSER (from files_GN.cpp)

@<TRIPOS>ATOM
      1 C1         -2.9112   31.5776   80.7906 C.2         1 EML       0.0195
      2 N1         -7.7024   29.1848   83.7593 N.pl3       1 EML      -0.2184
      3 O1         -9.6291   21.8712   83.2550 O.3         1 EML      -0.3892
      4 S1         -9.2153   27.1544   84.2869 S.3         1 EML       0.0206
      5 C2         -4.9295   32.1616   83.0973 C.2         1 EML       0.0730
      6 N2         -5.4541   29.1418   81.4368 N.2         1 EML      -0.3304
      7 C3         -5.8574   32.2042   84.0762 C.2         1 EML       0.0276
      8 N3         -4.8639   31.0874   82.2805 N.pl3       1 EML      -0.2136
      9 C4         -9.8799   23.3411   80.1891 C.3         1 EML      -0.0323
     10 N4         -1.0495   32.7609   80.7205 N.pl3       1 EML      -0.2209
     11 C5         -6.7346   30.0669   83.4010 C.2         1 EML       0.1947
     12 N5         -1.3067   32.4202   79.4967 N.2         1 EML      -0.2182
     13 C6         -5.7336   30.0483   82.3837 C.2         1 EML       0.1969
     14 N6         -9.2882   25.9721   83.1451 N.2         1 EML      -0.3061
     15 C7         -4.0255   30.8358   81.2504 C.2         1 EML       0.0797
     16 N7         -6.7085   31.1706   84.1966 N.2         1 EML      -0.2843
     17 C8         -2.4344   31.6902   79.4881 C.2         1 EML       0.0048
     18 N8         -8.9637   23.8419   81.2847 N.4         1 EML       0.2558
     19 C9         -4.4286   29.6135   80.7196 C.2         1 EML      -0.0220
     20 C10        -1.9852   32.2806   81.5529 C.2         1 EML       0.0562
     21 C11        -8.1269   28.0101   83.3010 C.2         1 EML       0.1479
     22 C12        -7.9256   27.3538   82.1579 C.2         1 EML      -0.0058
     23 C13        -8.4867   25.2552   80.9889 C.3         1 EML       0.0137
     24 C14        -8.5660   26.1783   82.1101 C.2         1 EML       0.0332
     25 C15        -7.8929   22.8414   81.7553 C.3         1 EML       0.0096
     26 C16       -11.2969   23.9606   80.2487 C.3         1 EML      -0.0244
     27 C17        -8.5605   21.5531   82.3668 C.3         1 EML       0.0892
     28 C18        -6.9862   23.4346   82.8963 C.3         1 EML      -0.0168
     29 C19        -5.9472   33.3169   84.9945 C.3         1 EML      -0.0245
     30 C20        -6.9510   22.3814   80.5896 C.3         1 EML      -0.0168
     31 H1         -8.1829   29.4671   84.5551 H           1 EML       0.2327
     32 H2         -9.9955   20.9927   83.4944 H           1 EML       0.2097
     33 H3         -4.3087   32.9257   82.9752 H           1 EML       0.0922
     34 H4        -10.0391   22.2705   80.2542 H           1 EML       0.0812
     35 H5         -9.4400   23.5292   79.2014 H           1 EML       0.0812
     36 H6         -0.2745   33.2722   81.0016 H           1 EML       0.2577
     37 H7         -2.8611   31.2902   78.6498 H           1 EML       0.0660
     38 H8         -9.5800   23.9374   82.0956 H           1 EML       0.2059
     39 H9         -3.9958   29.1247   79.9342 H           1 EML       0.0468
     40 H10        -1.9777   32.3793   82.5691 H           1 EML       0.0974
     41 H11        -7.4129   27.7081   81.3903 H           1 EML       0.0280
     42 H12        -9.0579   25.7279   80.1836 H           1 EML       0.1036
     43 H13        -7.4585   25.2266   80.6240 H           1 EML       0.1036
     44 H14       -11.9444   23.4784   79.5108 H           1 EML       0.0281
     45 H15       -11.2714   25.0301   80.0357 H           1 EML       0.0281
     46 H16       -11.7342   23.8073   81.2388 H           1 EML       0.0281
     47 H17        -8.9578   20.9016   81.5880 H           1 EML       0.0616
     48 H18        -7.8406   20.9428   82.9220 H           1 EML       0.0616
     49 H19        -6.2706   22.6930   83.2548 H           1 EML       0.0288
     50 H20        -7.5984   23.7535   83.7413 H           1 EML       0.0288
     51 H21        -6.4060   24.2916   82.5506 H           1 EML       0.0288
     52 H22        -6.7314   33.1662   85.7393 H           1 EML       0.0384
     53 H23        -6.1645   34.2354   84.4479 H           1 EML       0.0384
     54 H24        -4.9964   33.4334   85.5148 H           1 EML       0.0384
     55 H25        -6.2211   21.6525   80.9457 H           1 EML       0.0288
     56 H26        -6.3973   23.2182   80.1637 H           1 EML       0.0288
     57 H27        -7.5226   21.9100   79.7878 H           1 EML       0.0288
@<TRIPOS>BOND
     1    15     1   1
     2     1    17   1
     3     1    20   2
     4     2    11   1
     5    21     2   1
     6    27     3   1
     7    14     4   1
     8    21     4   1
     9     7     5   2
    10     8     5   1
    11    13     6   2
    12     6    19   1
    13    16     7   1
    14     7    29   1
    15    13     8   1
    16     8    15   1
    17    18     9   1
    18     9    26   1
    19    10    12   1
    20    20    10   1
    21    11    13   1
    22    11    16   2
    23    17    12   2
    24    24    14   2
    25    15    19   2
    26    18    23   1
    27    25    18   1
    28    22    21   2
    29    24    22   1
    30    23    24   1
    31    25    27   1
    32    25    28   1
    33    25    30   1
    34     2    31   1
    35     3    32   1
    36     5    33   1
    37     9    34   1
    38     9    35   1
    39    10    36   1
    40    17    37   1
    41    18    38   1
    42    19    39   1
    43    20    40   1
    44    22    41   1
    45    23    42   1
    46    23    43   1
    47    26    44   1
    48    26    45   1
    49    26    46   1
    50    27    47   1
    51    27    48   1
    52    28    49   1
    53    28    50   1
    54    28    51   1
    55    29    52   1
    56    29    53   1
    57    29    54   1
    58    30    55   1
    59    30    56   1
    60    30    57   1
@<TRIPOS>SUBSTRUCTURE
     1  EML      1

