@<TRIPOS>MOLECULE
3myg_ligand_042
    57    60
SMALL
GAST_HUCK
****
This file was generated by PARSER (from files_GN.cpp)

@<TRIPOS>ATOM
      1 C1         -4.0417   37.2347   84.2618 C.2         1 EML       0.0195
      2 N1         -0.4526   32.5900   85.9277 N.pl3       1 EML      -0.2184
      3 O1         -3.0467   25.1743   89.8558 O.3         1 EML      -0.3892
      4 S1         -2.6832   32.1180   87.3907 S.3         1 EML       0.0206
      5 C2         -0.9584   36.4133   84.4389 C.2         1 EML       0.0730
      6 N2         -3.2202   33.8192   84.9927 N.2         1 EML      -0.3304
      7 C3          0.2604   35.8630   84.6495 C.2         1 EML       0.0276
      8 N3         -2.0763   35.6774   84.6458 N.pl3       1 EML      -0.2136
      9 C4         -2.2506   26.4273   87.1585 C.3         1 EML      -0.0323
     10 N4         -5.6321   38.7449   83.9615 N.pl3       1 EML      -0.2209
     11 C5         -0.7428   33.7945   85.3592 C.2         1 EML       0.1947
     12 N5         -4.5531   39.4063   84.2199 N.2         1 EML      -0.2182
     13 C6         -2.0029   34.3744   85.0330 C.2         1 EML       0.1969
     14 N6         -2.6906   30.6150   88.0523 N.2         1 EML      -0.3061
     15 C7         -3.3868   35.9868   84.4775 C.2         1 EML       0.0797
     16 N7          0.3254   34.5964   85.1073 N.2         1 EML      -0.2843
     17 C8         -3.5513   38.5323   84.4051 C.2         1 EML       0.0048
     18 N8         -2.7245   27.6503   87.9215 N.4         1 EML       0.2558
     19 C9         -4.0775   34.7869   84.6525 C.2         1 EML      -0.0220
     20 C10        -5.3913   37.4283   83.9795 C.2         1 EML       0.0562
     21 C11        -1.2286   31.7286   86.5910 C.2         1 EML       0.1479
     22 C12        -0.8200   30.5030   86.9459 C.2         1 EML      -0.0058
     23 C13        -1.5627   28.5441   88.3392 C.3         1 EML       0.0137
     24 C14        -1.6890   29.8775   87.7585 C.2         1 EML       0.0332
     25 C15        -3.8195   27.3945   88.9777 C.3         1 EML       0.0096
     26 C16        -1.3114   26.6766   85.9520 C.3         1 EML      -0.0244
     27 C17        -3.3263   26.5285   90.1974 C.3         1 EML       0.0892
     28 C18        -5.0848   26.7026   88.3468 C.3         1 EML      -0.0168
     29 C19         1.4919   36.5971   84.4207 C.3         1 EML      -0.0245
     30 C20        -4.3603   28.7525   89.5544 C.3         1 EML      -0.0168
     31 H1          0.4880   32.3604   85.9267 H           1 EML       0.2327
     32 H2         -2.7463   24.7552   90.6956 H           1 EML       0.2097
     33 H3         -1.0273   37.3260   84.0596 H           1 EML       0.0922
     34 H4         -3.0999   25.9045   86.7260 H           1 EML       0.0812
     35 H5         -1.7507   25.7361   87.8380 H           1 EML       0.0812
     36 H6         -6.4998   39.1432   83.7977 H           1 EML       0.2577
     37 H7         -2.6050   38.8084   84.6629 H           1 EML       0.0660
     38 H8         -3.2159   28.1953   87.2052 H           1 EML       0.2059
     39 H9         -5.0892   34.6492   84.5792 H           1 EML       0.0468
     40 H10        -6.0965   36.7066   83.8352 H           1 EML       0.0974
     41 H11         0.0451   30.1014   86.6687 H           1 EML       0.0280
     42 H12        -0.5929   28.1108   88.0724 H           1 EML       0.1036
     43 H13        -1.5009   28.6738   89.4207 H           1 EML       0.1036
     44 H14        -1.3244   25.8109   85.2820 H           1 EML       0.0281
     45 H15        -0.2819   26.8248   86.2847 H           1 EML       0.0281
     46 H16        -1.6383   27.5556   85.3938 H           1 EML       0.0281
     47 H17        -2.4250   26.9531   90.6440 H           1 EML       0.0616
     48 H18        -4.0898   26.5043   90.9793 H           1 EML       0.0616
     49 H19        -5.9325   26.6887   89.0321 H           1 EML       0.0288
     50 H20        -4.8940   25.6637   88.0854 H           1 EML       0.0288
     51 H21        -5.3916   27.2342   87.4431 H           1 EML       0.0288
     52 H22         2.3587   35.9798   84.6603 H           1 EML       0.0384
     53 H23         1.5256   37.4884   85.0505 H           1 EML       0.0384
     54 H24         1.5691   36.9005   83.3752 H           1 EML       0.0384
     55 H25        -5.1825   28.5777   90.2539 H           1 EML       0.0288
     56 H26        -4.7378   29.3986   88.7570 H           1 EML       0.0288
     57 H27        -3.5955   29.2970   90.1081 H           1 EML       0.0288
@<TRIPOS>BOND
     1    15     1   1
     2     1    17   1
     3     1    20   2
     4     2    11   1
     5    21     2   1
     6    27     3   1
     7    14     4   1
     8    21     4   1
     9     7     5   2
    10     8     5   1
    11    13     6   2
    12     6    19   1
    13    16     7   1
    14     7    29   1
    15    13     8   1
    16     8    15   1
    17    18     9   1
    18     9    26   1
    19    10    12   1
    20    20    10   1
    21    11    13   1
    22    11    16   2
    23    17    12   2
    24    24    14   2
    25    15    19   2
    26    18    23   1
    27    25    18   1
    28    22    21   2
    29    24    22   1
    30    23    24   1
    31    25    27   1
    32    25    28   1
    33    25    30   1
    34     2    31   1
    35     3    32   1
    36     5    33   1
    37     9    34   1
    38     9    35   1
    39    10    36   1
    40    17    37   1
    41    18    38   1
    42    19    39   1
    43    20    40   1
    44    22    41   1
    45    23    42   1
    46    23    43   1
    47    26    44   1
    48    26    45   1
    49    26    46   1
    50    27    47   1
    51    27    48   1
    52    28    49   1
    53    28    50   1
    54    28    51   1
    55    29    52   1
    56    29    53   1
    57    29    54   1
    58    30    55   1
    59    30    56   1
    60    30    57   1
@<TRIPOS>SUBSTRUCTURE
     1  EML      1

