@<TRIPOS>MOLECULE
3myg_ligand_081
    57    60
SMALL
GAST_HUCK
****
This file was generated by PARSER (from files_GN.cpp)

@<TRIPOS>ATOM
      1 C1         -6.0322   29.8280   75.8293 C.2         1 EML       0.0195
      2 N1        -10.6712   28.9830   79.6105 N.pl3       1 EML      -0.2184
      3 O1         -9.6193   21.6690   83.2705 O.3         1 EML      -0.3892
      4 S1        -11.1391   28.0857   82.0266 S.3         1 EML       0.0206
      5 C2         -8.9301   30.7692   76.3255 C.2         1 EML       0.0730
      6 N2         -7.8915   28.0887   78.2884 N.2         1 EML      -0.3304
      7 C3        -10.1143   31.1684   76.8366 C.2         1 EML       0.0276
      8 N3         -8.2697   29.7449   76.8999 N.pl3       1 EML      -0.2136
      9 C4         -9.5990   23.6969   80.0167 C.3         1 EML      -0.0323
     10 N4         -4.3572   30.1085   74.4369 N.pl3       1 EML      -0.2209
     11 C5        -10.0319   29.4273   78.4975 C.2         1 EML       0.1947
     12 N5         -4.4010   31.1817   75.1676 N.2         1 EML      -0.2182
     13 C6         -8.7779   29.0354   77.9352 C.2         1 EML       0.1969
     14 N6        -10.2826   26.7450   82.4644 N.2         1 EML      -0.3061
     15 C7         -7.0363   29.2672   76.6261 C.2         1 EML       0.0797
     16 N7        -10.6203   30.4975   77.8936 N.2         1 EML      -0.2843
     17 C8         -5.4227   31.0656   76.0232 C.2         1 EML       0.0048
     18 N8         -9.0057   23.7793   81.4176 N.4         1 EML       0.2558
     19 C9         -6.8358   28.1838   77.4751 C.2         1 EML      -0.0220
     20 C10        -5.3112   29.2408   74.8014 C.2         1 EML       0.0562
     21 C11       -10.3775   28.0482   80.5037 C.2         1 EML       0.1479
     22 C12        -9.6324   26.9450   80.3981 C.2         1 EML      -0.0058
     23 C13        -8.5827   25.1929   81.7715 C.3         1 EML       0.0137
     24 C14        -9.5352   26.2632   81.5394 C.2         1 EML       0.0332
     25 C15        -7.9555   22.7011   81.7482 C.3         1 EML       0.0096
     26 C16       -11.1150   24.0342   79.9366 C.3         1 EML      -0.0244
     27 C17        -8.7008   21.3951   82.2100 C.3         1 EML       0.0892
     28 C18        -7.0164   23.0835   82.9549 C.3         1 EML      -0.0168
     29 C19       -10.8082   32.3318   76.3054 C.3         1 EML      -0.0245
     30 C20        -7.0246   22.3699   80.5298 C.3         1 EML      -0.0168
     31 H1        -11.4446   29.5095   79.8493 H           1 EML       0.2327
     32 H2         -9.9803   20.7889   83.5214 H           1 EML       0.2097
     33 H3         -8.5545   31.2308   75.5315 H           1 EML       0.0922
     34 H4         -9.5126   22.6910   79.6110 H           1 EML       0.0812
     35 H5         -9.0424   24.3366   79.3192 H           1 EML       0.0812
     36 H6         -3.7041   29.9519   73.7374 H           1 EML       0.2577
     37 H7         -5.6573   31.7543   76.7447 H           1 EML       0.0660
     38 H8         -9.7892   23.5900   82.0558 H           1 EML       0.2059
     39 H9         -5.9890   27.6127   77.5473 H           1 EML       0.0468
     40 H10        -5.4668   28.3146   74.3962 H           1 EML       0.0974
     41 H11        -9.2910   26.5854   79.5423 H           1 EML       0.0280
     42 H12        -7.6416   25.4299   81.2562 H           1 EML       0.1036
     43 H13        -8.3649   25.2581   82.8444 H           1 EML       0.1036
     44 H14       -11.4788   23.8071   78.9265 H           1 EML       0.0281
     45 H15       -11.3013   25.0941   80.1334 H           1 EML       0.0281
     46 H16       -11.6724   23.4261   80.6646 H           1 EML       0.0281
     47 H17        -9.2685   20.9274   81.4090 H           1 EML       0.0616
     48 H18        -7.9886   20.6457   82.5608 H           1 EML       0.0616
     49 H19        -6.4118   22.2311   83.2671 H           1 EML       0.0288
     50 H20        -7.6099   23.4140   83.8149 H           1 EML       0.0288
     51 H21        -6.3203   23.8827   82.6793 H           1 EML       0.0288
     52 H22       -11.7515   32.5066   76.8223 H           1 EML       0.0384
     53 H23       -11.0117   32.2109   75.2392 H           1 EML       0.0384
     54 H24       -10.1963   33.2243   76.4261 H           1 EML       0.0384
     55 H25        -6.2385   21.6784   80.8265 H           1 EML       0.0288
     56 H26        -6.5507   23.2793   80.1606 H           1 EML       0.0288
     57 H27        -7.5852   21.9149   79.7123 H           1 EML       0.0288
@<TRIPOS>BOND
     1    15     1   1
     2     1    17   1
     3     1    20   2
     4     2    11   1
     5    21     2   1
     6    27     3   1
     7    14     4   1
     8    21     4   1
     9     7     5   2
    10     8     5   1
    11    13     6   2
    12     6    19   1
    13    16     7   1
    14     7    29   1
    15    13     8   1
    16     8    15   1
    17    18     9   1
    18     9    26   1
    19    10    12   1
    20    20    10   1
    21    11    13   1
    22    11    16   2
    23    17    12   2
    24    24    14   2
    25    15    19   2
    26    18    23   1
    27    25    18   1
    28    22    21   2
    29    24    22   1
    30    23    24   1
    31    25    27   1
    32    25    28   1
    33    25    30   1
    34     2    31   1
    35     3    32   1
    36     5    33   1
    37     9    34   1
    38     9    35   1
    39    10    36   1
    40    17    37   1
    41    18    38   1
    42    19    39   1
    43    20    40   1
    44    22    41   1
    45    23    42   1
    46    23    43   1
    47    26    44   1
    48    26    45   1
    49    26    46   1
    50    27    47   1
    51    27    48   1
    52    28    49   1
    53    28    50   1
    54    28    51   1
    55    29    52   1
    56    29    53   1
    57    29    54   1
    58    30    55   1
    59    30    56   1
    60    30    57   1
@<TRIPOS>SUBSTRUCTURE
     1  EML      1

