@<TRIPOS>MOLECULE
3myg_ligand_051
    57    60
SMALL
GAST_HUCK
****
This file was generated by PARSER (from files_GN.cpp)

@<TRIPOS>ATOM
      1 C1         -2.9793   45.9451   82.1890 C.2         1 EML       0.0195
      2 N1         -2.9638   40.0560   82.8946 N.pl3       1 EML      -0.2184
      3 O1         -1.0277   34.9086   86.7586 O.3         1 EML      -0.3892
      4 S1         -3.9108   38.4754   84.9213 S.3         1 EML       0.0206
      5 C2         -3.8320   43.8327   84.3090 C.2         1 EML       0.0730
      6 N2         -2.4164   42.5094   81.3933 N.2         1 EML      -0.3304
      7 C3         -4.0724   42.7595   85.0971 C.2         1 EML       0.0276
      8 N3         -3.2942   43.6514   83.0830 N.pl3       1 EML      -0.2136
      9 C4         -0.5043   35.0322   83.9635 C.3         1 EML      -0.0323
     10 N4         -3.7197   48.0099   82.1348 N.pl3       1 EML      -0.2209
     11 C5         -3.2525   41.2809   83.3933 C.2         1 EML       0.1947
     12 N5         -2.4243   48.0934   82.2010 N.2         1 EML      -0.2182
     13 C6         -2.9927   42.4229   82.6025 C.2         1 EML       0.1969
     14 N6         -3.6811   36.8763   84.5736 N.2         1 EML      -0.3061
     15 C7         -2.8935   44.5466   82.1568 C.2         1 EML       0.0797
     16 N7         -3.7655   41.5333   84.6309 N.2         1 EML      -0.2843
     17 C8         -1.9222   46.8482   82.2345 C.2         1 EML       0.0048
     18 N8         -1.8706   34.3996   83.8011 N.4         1 EML       0.2558
     19 C9         -2.3450   43.8154   81.1048 C.2         1 EML      -0.0220
     20 C10        -4.1192   46.7334   82.1341 C.2         1 EML       0.0562
     21 C11        -3.1472   38.8615   83.4474 C.2         1 EML       0.1479
     22 C12        -2.7579   37.7575   82.8132 C.2         1 EML      -0.0058
     23 C13        -2.8037   35.2848   83.0053 C.3         1 EML       0.0137
     24 C14        -3.0586   36.6357   83.4859 C.2         1 EML       0.0332
     25 C15        -2.4122   33.6566   85.0449 C.3         1 EML       0.0096
     26 C16         0.2272   35.4667   82.6703 C.3         1 EML      -0.0244
     27 C17        -2.3249   34.4360   86.4115 C.3         1 EML       0.0892
     28 C18        -1.6189   32.3107   85.1924 C.3         1 EML      -0.0168
     29 C19        -4.6225   42.8939   86.4288 C.3         1 EML      -0.0245
     30 C20        -3.9151   33.2046   84.8879 C.3         1 EML      -0.0168
     31 H1         -2.5776   40.0482   81.9994 H           1 EML       0.2327
     32 H2         -1.1652   35.4106   87.5798 H           1 EML       0.2097
     33 H3         -4.0313   44.7490   84.6369 H           1 EML       0.0922
     34 H4          0.1704   34.3227   84.4433 H           1 EML       0.0812
     35 H5         -0.5734   35.9025   84.6212 H           1 EML       0.0812
     36 H6         -4.3153   48.7751   82.0787 H           1 EML       0.2577
     37 H7         -0.9305   46.6119   82.2913 H           1 EML       0.0660
     38 H8         -1.7056   33.6382   83.1405 H           1 EML       0.2059
     39 H9         -1.9623   44.2010   80.2396 H           1 EML       0.0468
     40 H10        -5.0858   46.4057   82.0554 H           1 EML       0.0974
     41 H11        -2.3168   37.7627   81.9221 H           1 EML       0.0280
     42 H12        -3.7702   34.8124   82.8498 H           1 EML       0.1036
     43 H13        -2.3914   35.3352   81.9891 H           1 EML       0.1036
     44 H14         1.2770   35.6683   82.8873 H           1 EML       0.0281
     45 H15        -0.2023   36.3839   82.2625 H           1 EML       0.0281
     46 H16         0.1667   34.6802   81.9198 H           1 EML       0.0281
     47 H17        -3.0073   35.2853   86.4031 H           1 EML       0.0616
     48 H18        -2.6280   33.7801   87.2331 H           1 EML       0.0616
     49 H19        -2.0306   31.6850   85.9885 H           1 EML       0.0288
     50 H20        -0.5696   32.4741   85.4339 H           1 EML       0.0288
     51 H21        -1.6620   31.7352   84.2593 H           1 EML       0.0288
     52 H22        -4.7787   41.9199   86.8986 H           1 EML       0.0384
     53 H23        -5.5846   43.4073   86.3866 H           1 EML       0.0384
     54 H24        -3.9402   43.4706   87.0560 H           1 EML       0.0384
     55 H25        -4.2346   32.5618   85.6995 H           1 EML       0.0288
     56 H26        -4.0551   32.6581   83.9475 H           1 EML       0.0288
     57 H27        -4.5824   34.0772   84.8807 H           1 EML       0.0288
@<TRIPOS>BOND
     1    15     1   1
     2     1    17   1
     3     1    20   2
     4     2    11   1
     5    21     2   1
     6    27     3   1
     7    14     4   1
     8    21     4   1
     9     7     5   2
    10     8     5   1
    11    13     6   2
    12     6    19   1
    13    16     7   1
    14     7    29   1
    15    13     8   1
    16     8    15   1
    17    18     9   1
    18     9    26   1
    19    10    12   1
    20    20    10   1
    21    11    13   1
    22    11    16   2
    23    17    12   2
    24    24    14   2
    25    15    19   2
    26    18    23   1
    27    25    18   1
    28    22    21   2
    29    24    22   1
    30    23    24   1
    31    25    27   1
    32    25    28   1
    33    25    30   1
    34     2    31   1
    35     3    32   1
    36     5    33   1
    37     9    34   1
    38     9    35   1
    39    10    36   1
    40    17    37   1
    41    18    38   1
    42    19    39   1
    43    20    40   1
    44    22    41   1
    45    23    42   1
    46    23    43   1
    47    26    44   1
    48    26    45   1
    49    26    46   1
    50    27    47   1
    51    27    48   1
    52    28    49   1
    53    28    50   1
    54    28    51   1
    55    29    52   1
    56    29    53   1
    57    29    54   1
    58    30    55   1
    59    30    56   1
    60    30    57   1
@<TRIPOS>SUBSTRUCTURE
     1  EML      1

