@<TRIPOS>MOLECULE
3myg_ligand_021
    57    60
SMALL
GAST_HUCK
****
This file was generated by PARSER (from files_GN.cpp)

@<TRIPOS>ATOM
      1 C1         -4.7823   29.8834   77.4967 C.2         1 EML       0.0195
      2 N1         -6.5227   28.0187   82.9380 N.pl3       1 EML      -0.2184
      3 O1         -5.6186   25.8236   87.6008 O.3         1 EML      -0.3892
      4 S1         -8.0263   27.2855   84.9732 S.3         1 EML       0.0206
      5 C2         -4.5127   30.7219   80.5516 C.2         1 EML       0.0730
      6 N2         -6.3720   27.8164   79.9775 N.2         1 EML      -0.3304
      7 C3         -4.4981   30.8636   81.8967 C.2         1 EML       0.0276
      8 N3         -5.1341   29.6565   79.9872 N.pl3       1 EML      -0.2136
      9 C4         -3.5138   29.6204   88.2781 C.3         1 EML      -0.0323
     10 N4         -4.5454   30.4608   75.3714 N.pl3       1 EML      -0.2209
     11 C5         -5.8145   28.8761   82.1606 C.2         1 EML       0.1947
     12 N5         -3.5987   31.0576   76.0152 N.2         1 EML      -0.2182
     13 C6         -5.7958   28.7458   80.7510 C.2         1 EML       0.1969
     14 N6         -7.5363   27.8629   86.4405 N.2         1 EML      -0.3061
     15 C7         -5.2775   29.2910   78.6912 C.2         1 EML       0.0797
     16 N7         -5.1455   29.9546   82.6481 N.2         1 EML      -0.2843
     17 C8         -3.6876   30.7271   77.3141 C.2         1 EML       0.0048
     18 N8         -4.5623   28.5509   88.0599 N.4         1 EML       0.2558
     19 C9         -6.0680   28.1381   78.7123 C.2         1 EML      -0.0220
     20 C10        -5.2916   29.7298   76.2098 C.2         1 EML       0.0562
     21 C11        -6.6737   28.0457   84.2655 C.2         1 EML       0.1479
     22 C12        -5.9060   28.6035   85.2039 C.2         1 EML      -0.0058
     23 C13        -5.8808   29.1604   87.6127 C.3         1 EML       0.0137
     24 C14        -6.4310   28.5037   86.4340 C.2         1 EML       0.0332
     25 C15        -4.6508   27.4831   89.1630 C.3         1 EML       0.0096
     26 C16        -2.9568   30.2467   86.9767 C.3         1 EML      -0.0244
     27 C17        -5.7884   26.4342   88.8783 C.3         1 EML       0.0892
     28 C18        -4.9220   28.1116   90.5701 C.3         1 EML      -0.0168
     29 C19        -3.8288   31.9660   82.5540 C.3         1 EML      -0.0245
     30 C20        -3.3193   26.6484   89.2429 C.3         1 EML      -0.0168
     31 H1         -7.0504   27.3535   82.4642 H           1 EML       0.2327
     32 H2         -6.3803   25.2215   87.4864 H           1 EML       0.2097
     33 H3         -4.0926   31.4169   79.9885 H           1 EML       0.0922
     34 H4         -2.6441   29.2248   88.7921 H           1 EML       0.0812
     35 H5         -3.9094   30.4146   88.9150 H           1 EML       0.0812
     36 H6         -4.6898   30.5330   74.4191 H           1 EML       0.2577
     37 H7         -3.0238   31.0390   78.0237 H           1 EML       0.0660
     38 H8         -4.2217   28.0367   87.2425 H           1 EML       0.2059
     39 H9         -6.3626   27.5939   77.8978 H           1 EML       0.0468
     40 H10        -6.1053   29.1744   75.9361 H           1 EML       0.0974
     41 H11        -5.0481   29.0589   85.0161 H           1 EML       0.0280
     42 H12        -5.7966   30.2149   87.3498 H           1 EML       0.1036
     43 H13        -6.6160   29.1440   88.4178 H           1 EML       0.1036
     44 H14        -2.1151   30.8999   87.2174 H           1 EML       0.0281
     45 H15        -3.7107   30.8410   86.4673 H           1 EML       0.0281
     46 H16        -2.6029   29.4647   86.3039 H           1 EML       0.0281
     47 H17        -5.7928   25.6434   89.6318 H           1 EML       0.0616
     48 H18        -6.7768   26.8945   88.9118 H           1 EML       0.0616
     49 H19        -5.0217   27.3373   91.3327 H           1 EML       0.0288
     50 H20        -5.8390   28.7010   90.5722 H           1 EML       0.0288
     51 H21        -4.1041   28.7666   90.8710 H           1 EML       0.0288
     52 H22        -3.9521   31.9178   83.6383 H           1 EML       0.0384
     53 H23        -4.2381   32.9153   82.2058 H           1 EML       0.0384
     54 H24        -2.7623   31.9309   82.3305 H           1 EML       0.0384
     55 H25        -3.4356   25.7684   89.8796 H           1 EML       0.0288
     56 H26        -2.4955   27.2182   89.6676 H           1 EML       0.0288
     57 H27        -3.0201   26.3093   88.2501 H           1 EML       0.0288
@<TRIPOS>BOND
     1    15     1   1
     2     1    17   1
     3     1    20   2
     4     2    11   1
     5    21     2   1
     6    27     3   1
     7    14     4   1
     8    21     4   1
     9     7     5   2
    10     8     5   1
    11    13     6   2
    12     6    19   1
    13    16     7   1
    14     7    29   1
    15    13     8   1
    16     8    15   1
    17    18     9   1
    18     9    26   1
    19    10    12   1
    20    20    10   1
    21    11    13   1
    22    11    16   2
    23    17    12   2
    24    24    14   2
    25    15    19   2
    26    18    23   1
    27    25    18   1
    28    22    21   2
    29    24    22   1
    30    23    24   1
    31    25    27   1
    32    25    28   1
    33    25    30   1
    34     2    31   1
    35     3    32   1
    36     5    33   1
    37     9    34   1
    38     9    35   1
    39    10    36   1
    40    17    37   1
    41    18    38   1
    42    19    39   1
    43    20    40   1
    44    22    41   1
    45    23    42   1
    46    23    43   1
    47    26    44   1
    48    26    45   1
    49    26    46   1
    50    27    47   1
    51    27    48   1
    52    28    49   1
    53    28    50   1
    54    28    51   1
    55    29    52   1
    56    29    53   1
    57    29    54   1
    58    30    55   1
    59    30    56   1
    60    30    57   1
@<TRIPOS>SUBSTRUCTURE
     1  EML      1

