@<TRIPOS>MOLECULE
3myg_ligand_026
    57    60
SMALL
GAST_HUCK
****
This file was generated by PARSER (from files_GN.cpp)

@<TRIPOS>ATOM
      1 C1        -13.5770   21.8861   81.3042 C.2         1 EML       0.0195
      2 N1         -9.6170   26.2160   80.3196 N.pl3       1 EML      -0.2184
      3 O1         -3.8725   32.4444   76.8317 O.3         1 EML      -0.3892
      4 S1         -7.1244   26.6434   81.3766 S.3         1 EML       0.0206
      5 C2        -10.7707   22.7677   82.2795 C.2         1 EML       0.0730
      6 N2        -12.1875   24.8466   79.8488 N.2         1 EML      -0.3304
      7 C3         -9.5910   23.3498   82.5952 C.2         1 EML       0.0276
      8 N3        -11.5597   23.3260   81.3333 N.pl3       1 EML      -0.2136
      9 C4         -6.4313   29.0843   76.8206 C.3         1 EML      -0.0323
     10 N4        -15.2126   20.6525   82.1011 N.pl3       1 EML      -0.2209
     11 C5         -9.9644   25.0773   80.9658 C.2         1 EML       0.1947
     12 N5        -14.2553   19.8334   81.7893 N.2         1 EML      -0.2182
     13 C6        -11.2052   24.4567   80.6807 C.2         1 EML       0.1969
     14 N6         -6.4239   27.9833   80.7143 N.2         1 EML      -0.3061
     15 C7        -12.7851   22.9750   80.9000 C.2         1 EML       0.0797
     16 N7         -9.2183   24.4635   81.9318 N.2         1 EML      -0.2843
     17 C8        -13.2280   20.5415   81.3007 C.2         1 EML       0.0048
     18 N8         -5.6938   29.4140   78.1132 N.4         1 EML       0.2558
     19 C9        -13.1721   23.9446   79.9776 C.2         1 EML      -0.0220
     20 C10       -14.8635   21.9197   81.8225 C.2         1 EML       0.0562
     21 C11        -8.5144   26.9606   80.4395 C.2         1 EML       0.1479
     22 C12        -8.3709   28.0849   79.7406 C.2         1 EML      -0.0058
     23 C13        -6.6700   29.8126   79.2095 C.3         1 EML       0.0137
     24 C14        -7.1684   28.6391   79.9027 C.2         1 EML       0.0332
     25 C15        -4.4351   30.2880   77.9953 C.3         1 EML       0.0096
     26 C16        -6.0091   27.7213   76.2088 C.3         1 EML      -0.0244
     27 C17        -4.7953   31.7823   77.7013 C.3         1 EML       0.0892
     28 C18        -3.4713   29.7284   76.8874 C.3         1 EML      -0.0168
     29 C19        -8.7472   22.8342   83.6521 C.3         1 EML      -0.0245
     30 C20        -3.5890   30.2005   79.3212 C.3         1 EML      -0.0168
     31 H1        -10.2631   26.5390   79.6723 H           1 EML       0.2327
     32 H2         -3.5206   33.2440   77.3183 H           1 EML       0.2097
     33 H3        -11.0732   21.9544   82.7637 H           1 EML       0.0922
     34 H4         -6.3040   29.8711   76.0695 H           1 EML       0.0812
     35 H5         -7.5056   28.9968   76.9673 H           1 EML       0.0812
     36 H6        -16.0632   20.3842   82.4882 H           1 EML       0.2577
     37 H7        -12.3392   20.1501   80.9746 H           1 EML       0.0660
     38 H8         -5.3214   28.5128   78.4326 H           1 EML       0.2059
     39 H9        -14.0623   23.9740   79.4704 H           1 EML       0.0468
     40 H10       -15.4443   22.7448   81.9765 H           1 EML       0.0974
     41 H11        -9.0636   28.4444   79.1254 H           1 EML       0.0280
     42 H12        -7.4963   30.4030   78.8010 H           1 EML       0.1036
     43 H13        -6.2183   30.4631   79.9609 H           1 EML       0.1036
     44 H14        -6.6856   27.4637   75.3826 H           1 EML       0.0281
     45 H15        -6.0703   26.9324   76.9696 H           1 EML       0.0281
     46 H16        -4.9858   27.7665   75.8137 H           1 EML       0.0281
     47 H17        -5.7707   31.8494   77.2162 H           1 EML       0.0616
     48 H18        -4.8622   32.3458   78.6328 H           1 EML       0.0616
     49 H19        -2.5164   30.2605   76.8867 H           1 EML       0.0288
     50 H20        -3.8945   29.8370   75.8886 H           1 EML       0.0288
     51 H21        -3.2600   28.6714   77.0705 H           1 EML       0.0288
     52 H22        -7.8435   23.4321   83.7703 H           1 EML       0.0384
     53 H23        -8.4563   21.8099   83.4274 H           1 EML       0.0384
     54 H24        -9.2947   22.8532   84.5929 H           1 EML       0.0384
     55 H25        -2.6264   30.7015   79.2080 H           1 EML       0.0288
     56 H26        -3.4117   29.1519   79.5862 H           1 EML       0.0288
     57 H27        -4.0851   30.6804   80.1654 H           1 EML       0.0288
@<TRIPOS>BOND
     1    15     1   1
     2     1    17   1
     3     1    20   2
     4     2    11   1
     5    21     2   1
     6    27     3   1
     7    14     4   1
     8    21     4   1
     9     7     5   2
    10     8     5   1
    11    13     6   2
    12     6    19   1
    13    16     7   1
    14     7    29   1
    15    13     8   1
    16     8    15   1
    17    18     9   1
    18     9    26   1
    19    10    12   1
    20    20    10   1
    21    11    13   1
    22    11    16   2
    23    17    12   2
    24    24    14   2
    25    15    19   2
    26    18    23   1
    27    25    18   1
    28    22    21   2
    29    24    22   1
    30    23    24   1
    31    25    27   1
    32    25    28   1
    33    25    30   1
    34     2    31   1
    35     3    32   1
    36     5    33   1
    37     9    34   1
    38     9    35   1
    39    10    36   1
    40    17    37   1
    41    18    38   1
    42    19    39   1
    43    20    40   1
    44    22    41   1
    45    23    42   1
    46    23    43   1
    47    26    44   1
    48    26    45   1
    49    26    46   1
    50    27    47   1
    51    27    48   1
    52    28    49   1
    53    28    50   1
    54    28    51   1
    55    29    52   1
    56    29    53   1
    57    29    54   1
    58    30    55   1
    59    30    56   1
    60    30    57   1
@<TRIPOS>SUBSTRUCTURE
     1  EML      1

