@<TRIPOS>MOLECULE
3myg_ligand_068
    57    60
SMALL
GAST_HUCK
****
This file was generated by PARSER (from files_GN.cpp)

@<TRIPOS>ATOM
      1 C1          6.9547   42.6995   86.3911 C.2         1 EML       0.0195
      2 N1          1.2876   42.3705   84.5610 N.pl3       1 EML      -0.2184
      3 O1         -6.5047   44.4568   86.2605 O.3         1 EML      -0.3892
      4 S1         -0.4521   40.2426   84.5732 S.3         1 EML       0.0206
      5 C2          4.7707   40.5189   85.7402 C.2         1 EML       0.0730
      6 N2          3.7552   43.8263   85.2054 N.2         1 EML      -0.3304
      7 C3          3.6929   39.7690   85.4266 C.2         1 EML       0.0276
      8 N3          4.6998   41.8697   85.6703 N.pl3       1 EML      -0.2136
      9 C4         -5.1189   41.4572   85.3517 C.3         1 EML      -0.0323
     10 N4          8.8030   42.0089   87.3816 N.pl3       1 EML      -0.2209
     11 C5          2.4244   41.7402   84.9247 C.2         1 EML       0.1947
     12 N5          9.1246   43.0820   86.7193 N.2         1 EML      -0.2182
     13 C6          3.5747   42.4991   85.2429 C.2         1 EML       0.1969
     14 N6         -2.0108   40.7454   84.3299 N.2         1 EML      -0.3061
     15 C7          5.6277   42.8263   85.9208 C.2         1 EML       0.0797
     16 N7          2.5615   40.3888   85.0445 N.2         1 EML      -0.2843
     17 C8          8.0270   43.5462   86.1144 C.2         1 EML       0.0048
     18 N8         -4.4551   42.7588   84.9225 N.4         1 EML       0.2558
     19 C9          5.0155   44.0435   85.6100 C.2         1 EML      -0.0220
     20 C10         7.5042   41.7284   87.2224 C.2         1 EML       0.0562
     21 C11         0.0714   41.8593   84.3598 C.2         1 EML       0.1479
     22 C12        -0.9606   42.6449   84.0671 C.2         1 EML      -0.0058
     23 C13        -3.4391   42.6061   83.8020 C.3         1 EML       0.0137
     24 C14        -2.1431   41.9997   84.0909 C.2         1 EML       0.0332
     25 C15        -4.1125   43.7285   86.0750 C.3         1 EML       0.0096
     26 C16        -5.3748   40.3239   84.3143 C.3         1 EML      -0.0244
     27 C17        -5.3710   43.9907   86.9914 C.3         1 EML       0.0892
     28 C18        -3.7138   45.1423   85.5022 C.3         1 EML      -0.0168
     29 C19         3.7204   38.3221   85.4776 C.3         1 EML      -0.0245
     30 C20        -2.9460   43.2406   87.0194 C.3         1 EML      -0.0168
     31 H1          1.3424   43.3318   84.4644 H           1 EML       0.2327
     32 H2         -6.7087   43.7448   85.6295 H           1 EML       0.2097
     33 H3          5.6232   40.0750   85.9943 H           1 EML       0.0922
     34 H4         -6.1248   41.7137   85.7190 H           1 EML       0.0812
     35 H5         -4.5725   41.0044   86.1819 H           1 EML       0.0812
     36 H6          9.4217   41.4817   87.9123 H           1 EML       0.2577
     37 H7          7.9986   44.3775   85.5178 H           1 EML       0.0660
     38 H8         -5.2122   43.2318   84.4315 H           1 EML       0.2059
     39 H9          5.4388   44.9708   85.6969 H           1 EML       0.0468
     40 H10         7.0151   40.9502   87.6678 H           1 EML       0.0974
     41 H11        -0.8818   43.6341   83.9198 H           1 EML       0.0280
     42 H12        -3.2873   43.5889   83.3397 H           1 EML       0.1036
     43 H13        -3.8888   42.0239   82.9912 H           1 EML       0.1036
     44 H14        -6.0575   39.5846   84.7535 H           1 EML       0.0281
     45 H15        -4.4255   39.8178   84.0743 H           1 EML       0.0281
     46 H16        -5.8229   40.7385   83.4005 H           1 EML       0.0281
     47 H17        -5.6462   43.0793   87.5301 H           1 EML       0.0616
     48 H18        -5.1351   44.7435   87.7537 H           1 EML       0.0616
     49 H19        -3.6381   45.8971   86.2960 H           1 EML       0.0288
     50 H20        -4.4689   45.4796   84.7811 H           1 EML       0.0288
     51 H21        -2.7406   45.1133   85.0026 H           1 EML       0.0288
     52 H22         2.7663   37.8961   85.1693 H           1 EML       0.0384
     53 H23         3.9305   37.9894   86.4947 H           1 EML       0.0384
     54 H24         4.4957   37.9397   84.8127 H           1 EML       0.0384
     55 H25        -2.7345   44.0082   87.7884 H           1 EML       0.0288
     56 H26        -2.0268   43.0636   86.4430 H           1 EML       0.0288
     57 H27        -3.2330   42.3133   87.5457 H           1 EML       0.0288
@<TRIPOS>BOND
     1    15     1   1
     2     1    17   1
     3     1    20   2
     4     2    11   1
     5    21     2   1
     6    27     3   1
     7    14     4   1
     8    21     4   1
     9     7     5   2
    10     8     5   1
    11    13     6   2
    12     6    19   1
    13    16     7   1
    14     7    29   1
    15    13     8   1
    16     8    15   1
    17    18     9   1
    18     9    26   1
    19    10    12   1
    20    20    10   1
    21    11    13   1
    22    11    16   2
    23    17    12   2
    24    24    14   2
    25    15    19   2
    26    18    23   1
    27    25    18   1
    28    22    21   2
    29    24    22   1
    30    23    24   1
    31    25    27   1
    32    25    28   1
    33    25    30   1
    34     2    31   1
    35     3    32   1
    36     5    33   1
    37     9    34   1
    38     9    35   1
    39    10    36   1
    40    17    37   1
    41    18    38   1
    42    19    39   1
    43    20    40   1
    44    22    41   1
    45    23    42   1
    46    23    43   1
    47    26    44   1
    48    26    45   1
    49    26    46   1
    50    27    47   1
    51    27    48   1
    52    28    49   1
    53    28    50   1
    54    28    51   1
    55    29    52   1
    56    29    53   1
    57    29    54   1
    58    30    55   1
    59    30    56   1
    60    30    57   1
@<TRIPOS>SUBSTRUCTURE
     1  EML      1

