@<TRIPOS>MOLECULE
3myg_ligand_071
    57    60
SMALL
GAST_HUCK
****
This file was generated by PARSER (from files_GN.cpp)

@<TRIPOS>ATOM
      1 C1         -5.6930   29.7866   76.1558 C.2         1 EML       0.0195
      2 N1         -6.4571   27.5250   81.8104 N.pl3       1 EML      -0.2184
      3 O1        -12.2857   21.2320   80.4759 O.3         1 EML      -0.3892
      4 S1         -7.4901   25.7741   83.4522 S.3         1 EML       0.0206
      5 C2         -4.8068   30.1999   79.1353 C.2         1 EML       0.0730
      6 N2         -7.0579   27.5919   78.6105 N.2         1 EML      -0.3304
      7 C3         -4.5547   30.2055   80.4606 C.2         1 EML       0.0276
      8 N3         -5.6709   29.2978   78.6194 N.pl3       1 EML      -0.2136
      9 C4         -8.4627   21.6456   81.3533 C.3         1 EML      -0.0323
     10 N4         -5.2818   31.3271   74.6352 N.pl3       1 EML      -0.2209
     11 C5         -6.0276   28.3281   80.8015 C.2         1 EML       0.1947
     12 N5         -5.1000   30.1822   74.0510 N.2         1 EML      -0.2182
     13 C6         -6.2843   28.3603   79.3930 C.2         1 EML       0.1969
     14 N6         -8.4382   24.6100   82.7676 N.2         1 EML      -0.3061
     15 C7         -6.0527   29.1006   77.3368 C.2         1 EML       0.0797
     16 N7         -5.1626   29.2870   81.2317 N.2         1 EML      -0.2843
     17 C8         -5.3450   29.2066   74.9388 C.2         1 EML       0.0048
     18 N8         -9.7437   22.4477   81.2003 N.4         1 EML       0.2558
     19 C9         -6.9205   28.0138   77.3525 C.2         1 EML      -0.0220
     20 C10        -5.6420   31.1566   75.9149 C.2         1 EML       0.0562
     21 C11        -7.2463   26.4545   81.9104 C.2         1 EML       0.1479
     22 C12        -7.8991   25.7382   81.0008 C.2         1 EML      -0.0058
     23 C13        -9.4197   23.8321   80.6871 C.3         1 EML       0.0137
     24 C14        -8.5737   24.7009   81.5012 C.2         1 EML       0.0332
     25 C15       -10.8641   22.2838   82.2514 C.3         1 EML       0.0096
     26 C16        -8.5015   20.2220   80.7524 C.3         1 EML      -0.0244
     27 C17       -11.7778   21.0851   81.8003 C.3         1 EML       0.0892
     28 C18       -11.8268   23.5206   82.3961 C.3         1 EML      -0.0168
     29 C19        -3.6513   31.1648   81.0646 C.3         1 EML      -0.0245
     30 C20       -10.3612   21.9758   83.7070 C.3         1 EML      -0.0168
     31 H1         -6.0987   27.7932   82.6697 H           1 EML       0.2327
     32 H2        -12.9546   21.9469   80.5228 H           1 EML       0.2097
     33 H3         -4.3378   30.8447   78.5443 H           1 EML       0.0922
     34 H4         -8.1478   21.5980   82.3976 H           1 EML       0.0812
     35 H5         -7.6346   22.1322   80.8271 H           1 EML       0.0812
     36 H6         -5.1823   32.1880   74.1958 H           1 EML       0.2577
     37 H7         -5.2745   28.2047   74.7413 H           1 EML       0.0660
     38 H8        -10.1637   22.0312   80.3661 H           1 EML       0.2059
     39 H9         -7.4032   27.6062   76.5495 H           1 EML       0.0468
     40 H10        -5.8710   31.9109   76.5668 H           1 EML       0.0974
     41 H11        -7.8527   25.9030   80.0389 H           1 EML       0.0280
     42 H12       -10.3282   24.3806   80.4444 H           1 EML       0.1036
     43 H13        -8.9362   23.7014   79.7121 H           1 EML       0.1036
     44 H14        -7.4870   19.8337   80.6467 H           1 EML       0.0281
     45 H15        -8.9694   20.2390   79.7673 H           1 EML       0.0281
     46 H16        -9.0474   19.5401   81.3977 H           1 EML       0.0281
     47 H17       -11.2273   20.1490   81.8165 H           1 EML       0.0616
     48 H18       -12.6286   20.9553   82.4753 H           1 EML       0.0616
     49 H19       -12.6227   23.3332   83.1195 H           1 EML       0.0288
     50 H20       -12.3075   23.7644   81.4482 H           1 EML       0.0288
     51 H21       -11.2831   24.3999   82.7388 H           1 EML       0.0288
     52 H22        -3.5438   30.9909   82.1387 H           1 EML       0.0384
     53 H23        -4.0331   32.1777   80.9150 H           1 EML       0.0384
     54 H24        -2.6627   31.0916   80.6056 H           1 EML       0.0384
     55 H25        -9.7513   22.7930   84.0937 H           1 EML       0.0288
     56 H26        -9.7636   21.0634   83.7424 H           1 EML       0.0288
     57 H27       -11.1978   21.8322   84.3962 H           1 EML       0.0288
@<TRIPOS>BOND
     1    15     1   1
     2     1    17   1
     3     1    20   2
     4     2    11   1
     5    21     2   1
     6    27     3   1
     7    14     4   1
     8    21     4   1
     9     7     5   2
    10     8     5   1
    11    13     6   2
    12     6    19   1
    13    16     7   1
    14     7    29   1
    15    13     8   1
    16     8    15   1
    17    18     9   1
    18     9    26   1
    19    10    12   1
    20    20    10   1
    21    11    13   1
    22    11    16   2
    23    17    12   2
    24    24    14   2
    25    15    19   2
    26    18    23   1
    27    25    18   1
    28    22    21   2
    29    24    22   1
    30    23    24   1
    31    25    27   1
    32    25    28   1
    33    25    30   1
    34     2    31   1
    35     3    32   1
    36     5    33   1
    37     9    34   1
    38     9    35   1
    39    10    36   1
    40    17    37   1
    41    18    38   1
    42    19    39   1
    43    20    40   1
    44    22    41   1
    45    23    42   1
    46    23    43   1
    47    26    44   1
    48    26    45   1
    49    26    46   1
    50    27    47   1
    51    27    48   1
    52    28    49   1
    53    28    50   1
    54    28    51   1
    55    29    52   1
    56    29    53   1
    57    29    54   1
    58    30    55   1
    59    30    56   1
    60    30    57   1
@<TRIPOS>SUBSTRUCTURE
     1  EML      1

