@<TRIPOS>MOLECULE
3myg_ligand_030
    57    60
SMALL
GAST_HUCK
****
This file was generated by PARSER (from files_GN.cpp)

@<TRIPOS>ATOM
      1 C1         -3.6017   30.7286   77.4282 C.2         1 EML       0.0195
      2 N1         -4.9511   30.8948   83.3603 N.pl3       1 EML      -0.2184
      3 O1         -1.7614   37.1079   81.4758 O.3         1 EML      -0.3892
      4 S1         -5.3096   32.3408   85.4415 S.3         1 EML       0.0206
      5 C2         -5.0339   29.0942   79.6659 C.2         1 EML       0.0730
      6 N2         -3.4083   31.9822   80.7632 N.2         1 EML      -0.3304
      7 C3         -5.6247   28.5797   80.7639 C.2         1 EML       0.0276
      8 N3         -4.3393   30.2496   79.7674 N.pl3       1 EML      -0.2136
      9 C4         -3.4831   36.6178   83.8657 C.3         1 EML      -0.0323
     10 N4         -4.1305   30.5863   75.2968 N.pl3       1 EML      -0.2209
     11 C5         -4.8286   30.4087   82.1079 C.2         1 EML       0.1947
     12 N5         -2.8378   30.6814   75.3449 N.2         1 EML      -0.2182
     13 C6         -4.1854   30.9070   80.9458 C.2         1 EML       0.1969
     14 N6         -4.2372   33.5596   85.6916 N.2         1 EML      -0.3061
     15 C7         -3.6589   30.9346   78.8197 C.2         1 EML       0.0797
     16 N7         -5.5180   29.2553   81.9196 N.2         1 EML      -0.2843
     17 C8         -2.4646   30.7692   76.6293 C.2         1 EML       0.0048
     18 N8         -2.2339   35.7497   83.8613 N.4         1 EML       0.2558
     19 C9         -3.0590   32.0079   79.4700 C.2         1 EML      -0.0220
     20 C10        -4.6555   30.5935   76.5326 C.2         1 EML       0.0562
     21 C11        -4.4967   31.9647   84.0006 C.2         1 EML       0.1479
     22 C12        -3.4498   32.7737   83.8199 C.2         1 EML      -0.0058
     23 C13        -2.2804   34.6904   84.9416 C.3         1 EML       0.0137
     24 C14        -3.3345   33.6930   84.7948 C.2         1 EML       0.0332
     25 C15        -0.8714   36.4372   83.6664 C.3         1 EML       0.0096
     26 C16        -3.5551   37.8129   84.8518 C.3         1 EML      -0.0244
     27 C17        -0.9167   37.5360   82.5488 C.3         1 EML       0.0892
     28 C18         0.1847   35.3848   83.1584 C.3         1 EML      -0.0168
     29 C19        -6.3380   27.3163   80.7633 C.3         1 EML      -0.0245
     30 C20        -0.2840   37.0835   84.9703 C.3         1 EML      -0.0168
     31 H1         -5.5551   30.3655   83.9062 H           1 EML       0.2327
     32 H2         -1.3790   37.5597   80.6734 H           1 EML       0.2097
     33 H3         -5.0867   28.6102   78.7967 H           1 EML       0.0922
     34 H4         -4.3557   35.9857   84.0732 H           1 EML       0.0812
     35 H5         -3.6483   37.0062   82.8532 H           1 EML       0.0812
     36 H6         -4.6349   30.5483   74.4705 H           1 EML       0.2577
     37 H7         -1.5021   30.8654   76.9510 H           1 EML       0.0660
     38 H8         -2.3451   35.2120   82.9973 H           1 EML       0.2059
     39 H9         -2.4818   32.7309   79.0270 H           1 EML       0.0468
     40 H10        -5.6487   30.5815   76.7698 H           1 EML       0.0974
     41 H11        -2.7689   32.6581   83.1094 H           1 EML       0.0280
     42 H12        -2.3673   35.1765   85.9170 H           1 EML       0.1036
     43 H13        -1.3552   34.1195   84.9753 H           1 EML       0.1036
     44 H14        -4.5885   38.1594   84.9399 H           1 EML       0.0281
     45 H15        -2.9581   38.6472   84.4857 H           1 EML       0.0281
     46 H16        -3.2060   37.5272   85.8450 H           1 EML       0.0281
     47 H17        -1.3168   38.4801   82.9231 H           1 EML       0.0616
     48 H18         0.0907   37.7483   82.1551 H           1 EML       0.0616
     49 H19         1.1075   35.8683   82.8235 H           1 EML       0.0288
     50 H20        -0.2183   34.8107   82.3187 H           1 EML       0.0288
     51 H21         0.4778   34.6818   83.9406 H           1 EML       0.0288
     52 H22        -6.8275   27.1318   81.7241 H           1 EML       0.0384
     53 H23        -5.6306   26.5046   80.5875 H           1 EML       0.0384
     54 H24        -7.1030   27.3064   79.9829 H           1 EML       0.0384
     55 H25         0.6978   37.5326   84.7809 H           1 EML       0.0288
     56 H26        -0.1539   36.3390   85.7627 H           1 EML       0.0288
     57 H27        -0.9312   37.8704   85.3548 H           1 EML       0.0288
@<TRIPOS>BOND
     1    15     1   1
     2     1    17   1
     3     1    20   2
     4     2    11   1
     5    21     2   1
     6    27     3   1
     7    14     4   1
     8    21     4   1
     9     7     5   2
    10     8     5   1
    11    13     6   2
    12     6    19   1
    13    16     7   1
    14     7    29   1
    15    13     8   1
    16     8    15   1
    17    18     9   1
    18     9    26   1
    19    10    12   1
    20    20    10   1
    21    11    13   1
    22    11    16   2
    23    17    12   2
    24    24    14   2
    25    15    19   2
    26    18    23   1
    27    25    18   1
    28    22    21   2
    29    24    22   1
    30    23    24   1
    31    25    27   1
    32    25    28   1
    33    25    30   1
    34     2    31   1
    35     3    32   1
    36     5    33   1
    37     9    34   1
    38     9    35   1
    39    10    36   1
    40    17    37   1
    41    18    38   1
    42    19    39   1
    43    20    40   1
    44    22    41   1
    45    23    42   1
    46    23    43   1
    47    26    44   1
    48    26    45   1
    49    26    46   1
    50    27    47   1
    51    27    48   1
    52    28    49   1
    53    28    50   1
    54    28    51   1
    55    29    52   1
    56    29    53   1
    57    29    54   1
    58    30    55   1
    59    30    56   1
    60    30    57   1
@<TRIPOS>SUBSTRUCTURE
     1  EML      1

