@<TRIPOS>MOLECULE
3myg_ligand_057
    57    60
SMALL
GAST_HUCK
****
This file was generated by PARSER (from files_GN.cpp)

@<TRIPOS>ATOM
      1 C1         -9.8232   23.1471   84.3396 C.2         1 EML       0.0195
      2 N1         -8.4616   25.2194   78.8236 N.pl3       1 EML      -0.2184
      3 O1         -3.3869   32.3889   77.8984 O.3         1 EML      -0.3892
      4 S1         -8.9282   27.4970   80.2523 S.3         1 EML       0.0206
      5 C2        -10.1248   22.3453   81.2385 C.2         1 EML       0.0730
      6 N2         -8.0924   25.1149   81.8943 N.2         1 EML      -0.3304
      7 C3        -10.1087   22.2236   79.8900 C.2         1 EML       0.0276
      8 N3         -9.4488   23.3561   81.8442 N.pl3       1 EML      -0.2136
      9 C4         -5.6480   29.4279   75.5908 C.3         1 EML      -0.0323
     10 N4        -10.5195   22.9885   86.4337 N.pl3       1 EML      -0.2209
     11 C5         -8.8778   24.2661   79.6858 C.2         1 EML       0.1947
     12 N5        -10.8127   21.8605   85.8684 N.2         1 EML      -0.2182
     13 C6         -8.7869   24.2846   81.1042 C.2         1 EML       0.1969
     14 N6         -8.2020   28.8109   79.5473 N.2         1 EML      -0.3061
     15 C7         -9.2677   23.6793   83.1465 C.2         1 EML       0.0797
     16 N7         -9.5144   23.1874   79.1560 N.2         1 EML      -0.2843
     17 C8        -10.4215   21.9143   84.5854 C.2         1 EML       0.0048
     18 N8         -5.5945   29.3645   77.1029 N.4         1 EML       0.2558
     19 C9         -8.3741   24.7546   83.1473 C.2         1 EML      -0.0220
     20 C10        -9.9158   23.8057   85.5642 C.2         1 EML       0.0562
     21 C11        -8.1893   26.5048   79.0628 C.2         1 EML       0.1479
     22 C12        -7.5037   27.2418   78.1904 C.2         1 EML      -0.0058
     23 C13        -6.9768   29.6242   77.6915 C.3         1 EML       0.0137
     24 C14        -7.4812   28.5420   78.5213 C.2         1 EML       0.0332
     25 C15        -4.4348   30.0996   77.7950 C.3         1 EML       0.0096
     26 C16        -6.4624   28.2735   74.9414 C.3         1 EML      -0.0244
     27 C17        -4.6177   31.6616   77.7795 C.3         1 EML       0.0892
     28 C18        -3.0550   29.7544   77.1291 C.3         1 EML      -0.0168
     29 C19       -10.7400   21.1123   79.2081 C.3         1 EML      -0.0245
     30 C20        -4.3080   29.5987   79.2736 C.3         1 EML      -0.0168
     31 H1         -8.4409   24.9581   77.8862 H           1 EML       0.2327
     32 H2         -3.6361   33.3310   77.7537 H           1 EML       0.2097
     33 H3        -10.5931   21.6618   81.7790 H           1 EML       0.0922
     34 H4         -4.6558   29.3245   75.1573 H           1 EML       0.0812
     35 H5         -6.0491   30.3899   75.2616 H           1 EML       0.0812
     36 H6        -10.7082   23.2128   87.3569 H           1 EML       0.2577
     37 H7        -10.5162   21.1326   83.9392 H           1 EML       0.0660
     38 H8         -5.3994   28.3780   77.3008 H           1 EML       0.2059
     39 H9         -7.9974   25.2360   83.9706 H           1 EML       0.0468
     40 H10        -9.5898   24.7552   85.7756 H           1 EML       0.0974
     41 H11        -7.0586   26.8620   77.3723 H           1 EML       0.0280
     42 H12        -7.7439   29.7790   76.9231 H           1 EML       0.1036
     43 H13        -6.9935   30.5521   78.2682 H           1 EML       0.1036
     44 H14        -6.3822   28.3288   73.8542 H           1 EML       0.0281
     45 H15        -7.5223   28.3286   75.2030 H           1 EML       0.0281
     46 H16        -6.0616   27.3135   75.2783 H           1 EML       0.0281
     47 H17        -5.1159   31.9794   76.8482 H           1 EML       0.0616
     48 H18        -5.2536   31.9874   78.6148 H           1 EML       0.0616
     49 H19        -2.2235   30.0827   77.7449 H           1 EML       0.0288
     50 H20        -2.9302   30.2616   76.1757 H           1 EML       0.0288
     51 H21        -2.9447   28.6847   76.9746 H           1 EML       0.0288
     52 H22       -10.6062   21.1828   78.1273 H           1 EML       0.0384
     53 H23       -11.8085   21.0966   79.4211 H           1 EML       0.0384
     54 H24       -10.2961   20.1764   79.5451 H           1 EML       0.0384
     55 H25        -3.4727   30.0907   79.7777 H           1 EML       0.0288
     56 H26        -4.1431   28.5196   79.3043 H           1 EML       0.0288
     57 H27        -5.2075   29.8213   79.8504 H           1 EML       0.0288
@<TRIPOS>BOND
     1    15     1   1
     2     1    17   1
     3     1    20   2
     4     2    11   1
     5    21     2   1
     6    27     3   1
     7    14     4   1
     8    21     4   1
     9     7     5   2
    10     8     5   1
    11    13     6   2
    12     6    19   1
    13    16     7   1
    14     7    29   1
    15    13     8   1
    16     8    15   1
    17    18     9   1
    18     9    26   1
    19    10    12   1
    20    20    10   1
    21    11    13   1
    22    11    16   2
    23    17    12   2
    24    24    14   2
    25    15    19   2
    26    18    23   1
    27    25    18   1
    28    22    21   2
    29    24    22   1
    30    23    24   1
    31    25    27   1
    32    25    28   1
    33    25    30   1
    34     2    31   1
    35     3    32   1
    36     5    33   1
    37     9    34   1
    38     9    35   1
    39    10    36   1
    40    17    37   1
    41    18    38   1
    42    19    39   1
    43    20    40   1
    44    22    41   1
    45    23    42   1
    46    23    43   1
    47    26    44   1
    48    26    45   1
    49    26    46   1
    50    27    47   1
    51    27    48   1
    52    28    49   1
    53    28    50   1
    54    28    51   1
    55    29    52   1
    56    29    53   1
    57    29    54   1
    58    30    55   1
    59    30    56   1
    60    30    57   1
@<TRIPOS>SUBSTRUCTURE
     1  EML      1

