@<TRIPOS>MOLECULE
3myg_ligand_016
    57    60
SMALL
GAST_HUCK
****
This file was generated by PARSER (from files_GN.cpp)

@<TRIPOS>ATOM
      1 C1         -4.1026   32.1113   83.7617 C.2         1 EML       0.0195
      2 N1         -6.5426   28.2624   79.7324 N.pl3       1 EML      -0.2184
      3 O1        -10.6946   21.2297   81.8035 O.3         1 EML      -0.3892
      4 S1         -8.5231   28.2078   81.6295 S.3         1 EML       0.0206
      5 C2         -4.1299   31.4755   80.6473 C.2         1 EML       0.0730
      6 N2         -5.8972   29.2194   82.6496 N.2         1 EML      -0.3304
      7 C3         -4.2393   30.9844   79.3935 C.2         1 EML       0.0276
      8 N3         -4.7171   30.8244   81.6794 N.pl3       1 EML      -0.2136
      9 C4         -7.9026   23.2075   80.6372 C.3         1 EML      -0.0323
     10 N4         -2.7234   33.6348   84.5614 N.pl3       1 EML      -0.2209
     11 C5         -5.7096   29.2440   80.1579 C.2         1 EML       0.1947
     12 N5         -3.7443   33.6191   85.3602 N.2         1 EML      -0.2182
     13 C6         -5.4807   29.7188   81.4791 C.2         1 EML       0.1969
     14 N6         -9.4553   26.8556   81.4913 N.2         1 EML      -0.3061
     15 C7         -4.7111   31.0755   83.0103 C.2         1 EML       0.0797
     16 N7         -5.0202   29.9032   79.1871 N.2         1 EML      -0.2843
     17 C8         -4.6137   32.7040   84.9129 C.2         1 EML       0.0048
     18 N8         -9.3292   23.5584   81.0126 N.4         1 EML       0.2558
     19 C9         -5.4524   30.0493   83.5978 C.2         1 EML      -0.0220
     20 C10        -2.8772   32.7410   83.5728 C.2         1 EML       0.0562
     21 C11        -7.5462   27.6328   80.3522 C.2         1 EML       0.1479
     22 C12        -8.0705   26.5137   79.8514 C.2         1 EML      -0.0058
     23 C13        -9.8141   24.8065   80.3025 C.3         1 EML       0.0137
     24 C14        -9.1046   26.0513   80.5655 C.2         1 EML       0.0332
     25 C15        -9.6818   23.3728   82.4999 C.3         1 EML       0.0096
     26 C16        -7.6875   22.8433   79.1505 C.3         1 EML      -0.0244
     27 C17        -9.8471   21.8329   82.7811 C.3         1 EML       0.0892
     28 C18       -11.0506   24.0252   82.9104 C.3         1 EML      -0.0168
     29 C19        -3.5849   31.6202   78.2657 C.3         1 EML      -0.0245
     30 C20        -8.5917   23.9316   83.4775 C.3         1 EML      -0.0168
     31 H1         -6.4104   27.9975   78.8096 H           1 EML       0.2327
     32 H2        -10.5927   20.2644   81.9349 H           1 EML       0.2097
     33 H3         -3.6077   32.3051   80.7997 H           1 EML       0.0922
     34 H4         -7.5527   22.3417   81.1928 H           1 EML       0.0812
     35 H5         -7.2258   24.0238   80.8958 H           1 EML       0.0812
     36 H6         -1.9472   34.2085   84.6728 H           1 EML       0.2577
     37 H7         -5.5080   32.4925   85.3565 H           1 EML       0.0660
     38 H8         -9.8817   22.8257   80.5591 H           1 EML       0.2059
     39 H9         -5.6224   29.9247   84.5980 H           1 EML       0.0468
     40 H10        -2.1861   32.5506   82.8459 H           1 EML       0.0974
     41 H11        -7.7525   26.0874   79.0120 H           1 EML       0.0280
     42 H12       -10.8747   24.9584   80.5091 H           1 EML       0.1036
     43 H13        -9.8017   24.6337   79.2232 H           1 EML       0.1036
     44 H14        -6.6824   22.4348   79.0207 H           1 EML       0.0281
     45 H15        -7.7717   23.7239   78.5136 H           1 EML       0.0281
     46 H16        -8.4159   22.0988   78.8293 H           1 EML       0.0281
     47 H17        -8.8920   21.3101   82.7686 H           1 EML       0.0616
     48 H18       -10.2775   21.6546   83.7683 H           1 EML       0.0616
     49 H19       -11.3401   23.7533   83.9281 H           1 EML       0.0288
     50 H20       -11.8519   23.7029   82.2426 H           1 EML       0.0288
     51 H21       -11.0000   25.1143   82.8795 H           1 EML       0.0288
     52 H22        -3.7583   31.0699   77.3376 H           1 EML       0.0384
     53 H23        -2.5084   31.6635   78.4401 H           1 EML       0.0384
     54 H24        -3.9619   32.6381   78.1399 H           1 EML       0.0384
     55 H25        -8.9056   23.8248   84.5185 H           1 EML       0.0288
     56 H26        -8.4040   24.9872   83.2832 H           1 EML       0.0288
     57 H27        -7.6481   23.3924   83.3759 H           1 EML       0.0288
@<TRIPOS>BOND
     1    15     1   1
     2     1    17   1
     3     1    20   2
     4     2    11   1
     5    21     2   1
     6    27     3   1
     7    14     4   1
     8    21     4   1
     9     7     5   2
    10     8     5   1
    11    13     6   2
    12     6    19   1
    13    16     7   1
    14     7    29   1
    15    13     8   1
    16     8    15   1
    17    18     9   1
    18     9    26   1
    19    10    12   1
    20    20    10   1
    21    11    13   1
    22    11    16   2
    23    17    12   2
    24    24    14   2
    25    15    19   2
    26    18    23   1
    27    25    18   1
    28    22    21   2
    29    24    22   1
    30    23    24   1
    31    25    27   1
    32    25    28   1
    33    25    30   1
    34     2    31   1
    35     3    32   1
    36     5    33   1
    37     9    34   1
    38     9    35   1
    39    10    36   1
    40    17    37   1
    41    18    38   1
    42    19    39   1
    43    20    40   1
    44    22    41   1
    45    23    42   1
    46    23    43   1
    47    26    44   1
    48    26    45   1
    49    26    46   1
    50    27    47   1
    51    27    48   1
    52    28    49   1
    53    28    50   1
    54    28    51   1
    55    29    52   1
    56    29    53   1
    57    29    54   1
    58    30    55   1
    59    30    56   1
    60    30    57   1
@<TRIPOS>SUBSTRUCTURE
     1  EML      1

