@<TRIPOS>MOLECULE
3myg_ligand_047
    57    60
SMALL
GAST_HUCK
****
This file was generated by PARSER (from files_GN.cpp)

@<TRIPOS>ATOM
      1 C1         -1.7699   36.2882   85.0137 C.2         1 EML       0.0195
      2 N1         -1.4590   33.0809   79.9070 N.pl3       1 EML      -0.2184
      3 O1         -6.2339   28.3278   74.9003 O.3         1 EML      -0.3892
      4 S1         -2.9959   31.5709   81.5857 S.3         1 EML       0.0206
      5 C2          0.1913   35.7458   82.5722 C.2         1 EML       0.0730
      6 N2         -3.0171   34.4335   82.2273 N.2         1 EML      -0.3304
      7 C3          0.8393   35.3821   81.4394 C.2         1 EML       0.0276
      8 N3         -1.0924   35.3731   82.7654 N.pl3       1 EML      -0.2136
      9 C4         -6.2466   29.1884   79.8848 C.3         1 EML      -0.0323
     10 N4         -1.9592   36.8226   87.1426 N.pl3       1 EML      -0.2209
     11 C5         -1.0440   34.0670   80.7462 C.2         1 EML       0.1947
     12 N5         -1.0740   37.6242   86.6423 N.2         1 EML      -0.2182
     13 C6         -1.7367   34.5842   81.8700 C.2         1 EML       0.1969
     14 N6         -3.7405   30.3518   80.8010 N.2         1 EML      -0.3061
     15 C7         -1.9573   35.6282   83.7779 C.2         1 EML       0.0797
     16 N7          0.2152   34.5521   80.5705 N.2         1 EML      -0.2843
     17 C8         -0.9190   37.3355   85.3396 C.2         1 EML       0.0048
     18 N8         -5.4656   28.8159   78.6369 N.4         1 EML       0.2558
     19 C9         -3.1679   35.0460   83.4046 C.2         1 EML      -0.0220
     20 C10        -2.4277   35.9937   86.2028 C.2         1 EML       0.0562
     21 C11        -2.3963   32.1383   80.0945 C.2         1 EML       0.1479
     22 C12        -2.7780   31.3123   79.1169 C.2         1 EML      -0.0058
     23 C13        -3.9846   29.1279   78.7803 C.3         1 EML       0.0137
     24 C14        -3.5703   30.3106   79.5389 C.2         1 EML       0.0332
     25 C15        -6.1017   29.1447   77.2753 C.3         1 EML       0.0096
     26 C16        -5.9361   28.3323   81.1398 C.3         1 EML      -0.0244
     27 C17        -5.6427   28.1029   76.1827 C.3         1 EML       0.0892
     28 C18        -5.7058   30.5715   76.7798 C.3         1 EML      -0.0168
     29 C19         2.2063   35.8064   81.2014 C.3         1 EML      -0.0245
     30 C20        -7.6732   29.0505   77.3136 C.3         1 EML      -0.0168
     31 H1         -0.9209   32.9643   79.1038 H           1 EML       0.2327
     32 H2         -5.4948   28.5689   74.2866 H           1 EML       0.2097
     33 H3          0.6583   36.2997   83.2504 H           1 EML       0.0922
     34 H4         -7.3136   29.0200   79.7414 H           1 EML       0.0812
     35 H5         -6.1349   30.2502   80.1200 H           1 EML       0.0812
     36 H6         -2.2491   36.8249   88.0713 H           1 EML       0.2577
     37 H7         -0.3032   37.8418   84.7081 H           1 EML       0.0660
     38 H8         -5.4979   27.7987   78.6538 H           1 EML       0.2059
     39 H9         -4.0436   35.0684   83.9339 H           1 EML       0.0468
     40 H10        -3.1254   35.2646   86.3563 H           1 EML       0.0974
     41 H11        -2.4673   31.4076   78.1719 H           1 EML       0.0280
     42 H12        -3.4974   29.1565   77.8020 H           1 EML       0.1036
     43 H13        -3.5109   28.2648   79.2574 H           1 EML       0.1036
     44 H14        -6.5515   28.6708   81.9787 H           1 EML       0.0281
     45 H15        -4.8914   28.4094   81.4421 H           1 EML       0.0281
     46 H16        -6.1713   27.2884   80.9359 H           1 EML       0.0281
     47 H17        -4.5651   28.1485   76.0226 H           1 EML       0.0616
     48 H18        -5.8929   27.0887   76.4984 H           1 EML       0.0616
     49 H19        -6.3210   30.8818   75.9325 H           1 EML       0.0288
     50 H20        -4.6698   30.6043   76.4481 H           1 EML       0.0288
     51 H21        -5.8320   31.2942   77.5857 H           1 EML       0.0288
     52 H22         2.5901   35.4133   80.2598 H           1 EML       0.0384
     53 H23         2.8497   35.4518   82.0086 H           1 EML       0.0384
     54 H24         2.2531   36.8958   81.1651 H           1 EML       0.0384
     55 H25        -8.1228   29.1496   76.3186 H           1 EML       0.0288
     56 H26        -8.1129   29.8496   77.9102 H           1 EML       0.0288
     57 H27        -7.9882   28.0905   77.7244 H           1 EML       0.0288
@<TRIPOS>BOND
     1    15     1   1
     2     1    17   1
     3     1    20   2
     4     2    11   1
     5    21     2   1
     6    27     3   1
     7    14     4   1
     8    21     4   1
     9     7     5   2
    10     8     5   1
    11    13     6   2
    12     6    19   1
    13    16     7   1
    14     7    29   1
    15    13     8   1
    16     8    15   1
    17    18     9   1
    18     9    26   1
    19    10    12   1
    20    20    10   1
    21    11    13   1
    22    11    16   2
    23    17    12   2
    24    24    14   2
    25    15    19   2
    26    18    23   1
    27    25    18   1
    28    22    21   2
    29    24    22   1
    30    23    24   1
    31    25    27   1
    32    25    28   1
    33    25    30   1
    34     2    31   1
    35     3    32   1
    36     5    33   1
    37     9    34   1
    38     9    35   1
    39    10    36   1
    40    17    37   1
    41    18    38   1
    42    19    39   1
    43    20    40   1
    44    22    41   1
    45    23    42   1
    46    23    43   1
    47    26    44   1
    48    26    45   1
    49    26    46   1
    50    27    47   1
    51    27    48   1
    52    28    49   1
    53    28    50   1
    54    28    51   1
    55    29    52   1
    56    29    53   1
    57    29    54   1
    58    30    55   1
    59    30    56   1
    60    30    57   1
@<TRIPOS>SUBSTRUCTURE
     1  EML      1

