@<TRIPOS>MOLECULE
3myg_ligand_044
    57    60
SMALL
GAST_HUCK
****
This file was generated by PARSER (from files_GN.cpp)

@<TRIPOS>ATOM
      1 C1         -5.6104   30.6853   77.8625 C.2         1 EML       0.0195
      2 N1        -10.0939   27.9166   80.6612 N.pl3       1 EML      -0.2184
      3 O1         -5.7678   22.8158   83.3626 O.3         1 EML      -0.3892
      4 S1        -11.7883   25.9346   80.9182 S.3         1 EML       0.0206
      5 C2         -6.4443   29.8444   80.8090 C.2         1 EML       0.0730
      6 N2         -8.7289   28.9712   78.3171 N.2         1 EML      -0.3304
      7 C3         -6.9900   29.3782   81.9560 C.2         1 EML       0.0276
      8 N3         -7.1002   29.7003   79.6356 N.pl3       1 EML      -0.2136
      9 C4         -9.2397   22.1277   83.1805 C.3         1 EML      -0.0323
     10 N4         -3.9562   32.1230   77.5801 N.pl3       1 EML      -0.2209
     11 C5         -8.9209   28.5942   80.7552 C.2         1 EML       0.1947
     12 N5         -4.1135   31.5255   76.4429 N.2         1 EML      -0.2182
     13 C6         -8.3124   29.0928   79.5831 C.2         1 EML       0.1969
     14 N6        -11.2805   24.8850   82.0788 N.2         1 EML      -0.3061
     15 C7         -6.7406   29.9999   78.3630 C.2         1 EML       0.0797
     16 N7         -8.1951   28.7695   81.8952 N.2         1 EML      -0.2843
     17 C8         -5.1062   30.6333   76.5639 C.2         1 EML       0.0048
     18 N8         -8.6836   23.5345   83.2871 N.4         1 EML       0.2558
     19 C9         -7.7706   29.5088   77.5554 C.2         1 EML      -0.0220
     20 C10        -4.8248   31.6513   78.4835 C.2         1 EML       0.0562
     21 C11       -10.6472   27.0504   81.5150 C.2         1 EML       0.1479
     22 C12       -10.2156   26.6673   82.7152 C.2         1 EML      -0.0058
     23 C13        -9.7030   24.5247   83.8433 C.3         1 EML       0.0137
     24 C14       -10.4585   25.3677   82.9262 C.2         1 EML       0.0332
     25 C15        -7.6326   24.0041   82.2613 C.3         1 EML       0.0096
     26 C16       -10.3392   21.8045   82.1386 C.3         1 EML      -0.0244
     27 C17        -6.4585   22.9700   82.1269 C.3         1 EML       0.0892
     28 C18        -6.9578   25.3301   82.7628 C.3         1 EML      -0.0168
     29 C19        -6.2989   29.4796   83.2275 C.3         1 EML      -0.0245
     30 C20        -8.1570   24.2524   80.8082 C.3         1 EML      -0.0168
     31 H1        -10.4897   27.9138   79.7784 H           1 EML       0.2327
     32 H2         -5.4160   21.9003   83.3604 H           1 EML       0.2097
     33 H3         -5.5380   30.2495   80.8279 H           1 EML       0.0922
     34 H4         -9.6482   21.8561   84.1603 H           1 EML       0.0812
     35 H5         -8.4333   21.4159   83.0322 H           1 EML       0.0812
     36 H6         -3.3295   32.8558   77.7295 H           1 EML       0.2577
     37 H7         -5.4446   30.0401   75.8061 H           1 EML       0.0660
     38 H8         -8.0840   23.4184   84.1102 H           1 EML       0.2059
     39 H9         -7.8213   29.5756   76.5351 H           1 EML       0.0468
     40 H10        -4.9244   32.0181   79.4291 H           1 EML       0.0974
     41 H11        -9.5744   27.1910   83.2627 H           1 EML       0.0280
     42 H12        -9.1565   25.1626   84.5472 H           1 EML       0.1036
     43 H13       -10.4425   24.0071   84.4706 H           1 EML       0.1036
     44 H14       -10.4947   20.7232   82.1041 H           1 EML       0.0281
     45 H15       -10.0685   22.1451   81.1354 H           1 EML       0.0281
     46 H16       -11.2890   22.2589   82.4300 H           1 EML       0.0281
     47 H17        -6.8302   21.9929   81.8029 H           1 EML       0.0616
     48 H18        -5.7345   23.2869   81.3756 H           1 EML       0.0616
     49 H19        -6.0707   25.5889   82.1775 H           1 EML       0.0288
     50 H20        -6.6521   25.2340   83.8055 H           1 EML       0.0288
     51 H21        -7.6310   26.1786   82.6864 H           1 EML       0.0288
     52 H22        -6.8701   29.0103   84.0281 H           1 EML       0.0384
     53 H23        -6.1519   30.5296   83.4821 H           1 EML       0.0384
     54 H24        -5.3291   28.9825   83.1627 H           1 EML       0.0384
     55 H25        -7.3803   24.6958   80.1856 H           1 EML       0.0288
     56 H26        -9.0042   24.9327   80.7847 H           1 EML       0.0288
     57 H27        -8.4638   23.3212   80.3263 H           1 EML       0.0288
@<TRIPOS>BOND
     1    15     1   1
     2     1    17   1
     3     1    20   2
     4     2    11   1
     5    21     2   1
     6    27     3   1
     7    14     4   1
     8    21     4   1
     9     7     5   2
    10     8     5   1
    11    13     6   2
    12     6    19   1
    13    16     7   1
    14     7    29   1
    15    13     8   1
    16     8    15   1
    17    18     9   1
    18     9    26   1
    19    10    12   1
    20    20    10   1
    21    11    13   1
    22    11    16   2
    23    17    12   2
    24    24    14   2
    25    15    19   2
    26    18    23   1
    27    25    18   1
    28    22    21   2
    29    24    22   1
    30    23    24   1
    31    25    27   1
    32    25    28   1
    33    25    30   1
    34     2    31   1
    35     3    32   1
    36     5    33   1
    37     9    34   1
    38     9    35   1
    39    10    36   1
    40    17    37   1
    41    18    38   1
    42    19    39   1
    43    20    40   1
    44    22    41   1
    45    23    42   1
    46    23    43   1
    47    26    44   1
    48    26    45   1
    49    26    46   1
    50    27    47   1
    51    27    48   1
    52    28    49   1
    53    28    50   1
    54    28    51   1
    55    29    52   1
    56    29    53   1
    57    29    54   1
    58    30    55   1
    59    30    56   1
    60    30    57   1
@<TRIPOS>SUBSTRUCTURE
     1  EML      1

