@<TRIPOS>MOLECULE
3myg_ligand_082
    57    60
SMALL
GAST_HUCK
****
This file was generated by PARSER (from files_GN.cpp)

@<TRIPOS>ATOM
      1 C1         -4.1899   30.8268   76.9327 C.2         1 EML       0.0195
      2 N1         -7.6761   25.9237   77.2996 N.pl3       1 EML      -0.2184
      3 O1         -9.7185   23.6259   84.7129 O.3         1 EML      -0.3892
      4 S1         -8.9615   23.6306   77.0000 S.3         1 EML       0.0206
      5 C2         -6.0346   29.3168   79.0274 C.2         1 EML       0.0730
      6 N2         -5.9388   27.8671   75.8302 N.2         1 EML      -0.3304
      7 C3         -6.8771   28.5370   79.7331 C.2         1 EML       0.0276
      8 N3         -5.7933   29.0487   77.7161 N.pl3       1 EML      -0.2136
      9 C4         -7.7170   22.4894   81.5417 C.3         1 EML      -0.0323
     10 N4         -3.3462   32.7418   77.5995 N.pl3       1 EML      -0.2209
     11 C5         -7.1468   27.0296   77.8667 C.2         1 EML       0.1947
     12 N5         -2.5812   32.3319   76.6202 N.2         1 EML      -0.2182
     13 C6         -6.3348   27.9300   77.1136 C.2         1 EML       0.1969
     14 N6         -9.7415   23.0802   78.3885 N.2         1 EML      -0.3061
     15 C7         -5.0205   29.6653   76.7996 C.2         1 EML       0.0797
     16 N7         -7.3554   27.4198   79.1547 N.2         1 EML      -0.2843
     17 C8         -3.0626   31.1582   76.1943 C.2         1 EML       0.0048
     18 N8         -8.9015   23.3267   81.9112 N.4         1 EML       0.2558
     19 C9         -5.1308   28.9254   75.6326 C.2         1 EML      -0.0220
     20 C10        -4.3402   31.8847   77.8078 C.2         1 EML       0.0562
     21 C11        -8.3545   24.9457   77.8703 C.2         1 EML       0.1479
     22 C12        -8.8629   24.8976   79.1317 C.2         1 EML      -0.0058
     23 C13        -9.9246   23.4205   80.7994 C.3         1 EML       0.0137
     24 C14        -9.4747   23.7585   79.4179 C.2         1 EML       0.0332
     25 C15        -8.5950   24.5957   82.7248 C.3         1 EML       0.0096
     26 C16        -8.1065   21.1117   80.8775 C.3         1 EML      -0.0244
     27 C17        -8.4824   24.1660   84.2107 C.3         1 EML       0.0892
     28 C18        -9.6863   25.7188   82.7014 C.3         1 EML      -0.0168
     29 C19        -7.3254   28.8794   81.0713 C.3         1 EML      -0.0245
     30 C20        -7.2640   25.2928   82.2613 C.3         1 EML      -0.0168
     31 H1         -7.4844   25.8303   76.3627 H           1 EML       0.2327
     32 H2         -9.6218   23.6068   85.6978 H           1 EML       0.2097
     33 H3         -5.5746   30.0580   79.4856 H           1 EML       0.0922
     34 H4         -7.0562   22.2194   82.3647 H           1 EML       0.0812
     35 H5         -7.0676   23.0044   80.8051 H           1 EML       0.0812
     36 H6         -3.2310   33.5945   78.0428 H           1 EML       0.2577
     37 H7         -2.6549   30.6357   75.4070 H           1 EML       0.0660
     38 H8         -9.3737   22.7421   82.5792 H           1 EML       0.2059
     39 H9         -4.6689   29.1084   74.7468 H           1 EML       0.0468
     40 H10        -5.0976   32.0302   78.4827 H           1 EML       0.0974
     41 H11        -8.9306   25.6603   79.7427 H           1 EML       0.0280
     42 H12       -10.7166   24.1342   81.0105 H           1 EML       0.1036
     43 H13       -10.4482   22.4425   80.7262 H           1 EML       0.1036
     44 H14        -7.2520   20.4806   80.6250 H           1 EML       0.0281
     45 H15        -8.6564   21.2510   79.9238 H           1 EML       0.0281
     46 H16        -8.7433   20.5478   81.5395 H           1 EML       0.0281
     47 H17        -7.7076   23.3999   84.3224 H           1 EML       0.0616
     48 H18        -8.2095   25.0335   84.8390 H           1 EML       0.0616
     49 H19        -9.4460   26.5332   83.4055 H           1 EML       0.0288
     50 H20       -10.6875   25.3663   82.9517 H           1 EML       0.0288
     51 H21        -9.7515   26.1923   81.7273 H           1 EML       0.0288
     52 H22        -8.1170   28.2165   81.4311 H           1 EML       0.0384
     53 H23        -7.7356   29.8914   81.0818 H           1 EML       0.0384
     54 H24        -6.4919   28.8194   81.7719 H           1 EML       0.0384
     55 H25        -7.0726   26.2200   82.8258 H           1 EML       0.0288
     56 H26        -7.2948   25.5711   81.2092 H           1 EML       0.0288
     57 H27        -6.3818   24.6606   82.3924 H           1 EML       0.0288
@<TRIPOS>BOND
     1    15     1   1
     2     1    17   1
     3     1    20   2
     4     2    11   1
     5    21     2   1
     6    27     3   1
     7    14     4   1
     8    21     4   1
     9     7     5   2
    10     8     5   1
    11    13     6   2
    12     6    19   1
    13    16     7   1
    14     7    29   1
    15    13     8   1
    16     8    15   1
    17    18     9   1
    18     9    26   1
    19    10    12   1
    20    20    10   1
    21    11    13   1
    22    11    16   2
    23    17    12   2
    24    24    14   2
    25    15    19   2
    26    18    23   1
    27    25    18   1
    28    22    21   2
    29    24    22   1
    30    23    24   1
    31    25    27   1
    32    25    28   1
    33    25    30   1
    34     2    31   1
    35     3    32   1
    36     5    33   1
    37     9    34   1
    38     9    35   1
    39    10    36   1
    40    17    37   1
    41    18    38   1
    42    19    39   1
    43    20    40   1
    44    22    41   1
    45    23    42   1
    46    23    43   1
    47    26    44   1
    48    26    45   1
    49    26    46   1
    50    27    47   1
    51    27    48   1
    52    28    49   1
    53    28    50   1
    54    28    51   1
    55    29    52   1
    56    29    53   1
    57    29    54   1
    58    30    55   1
    59    30    56   1
    60    30    57   1
@<TRIPOS>SUBSTRUCTURE
     1  EML      1

