@<TRIPOS>MOLECULE
3myg_ligand_032
    57    60
SMALL
GAST_HUCK
****
This file was generated by PARSER (from files_GN.cpp)

@<TRIPOS>ATOM
      1 C1         -4.4393   31.0668   77.4900 C.2         1 EML       0.0195
      2 N1         -5.5915   31.3256   83.4373 N.pl3       1 EML      -0.2184
      3 O1        -11.2589   30.4467   87.6998 O.3         1 EML      -0.3892
      4 S1         -6.2278   28.7462   82.8318 S.3         1 EML       0.0206
      5 C2         -3.4886   32.5520   80.1256 C.2         1 EML       0.0730
      6 N2         -6.3917   30.6538   80.4711 N.2         1 EML      -0.3304
      7 C3         -3.2183   33.0146   81.3699 C.2         1 EML       0.0276
      8 N3         -4.5238   31.7072   79.9231 N.pl3       1 EML      -0.2136
      9 C4        -10.1801   28.0474   86.0344 C.3         1 EML      -0.0323
     10 N4         -4.1856   30.7457   75.3166 N.pl3       1 EML      -0.2209
     11 C5         -5.0355   31.7422   82.2736 C.2         1 EML       0.1947
     12 N5         -3.0098   31.0235   75.7780 N.2         1 EML      -0.2182
     13 C6         -5.3425   31.3415   80.9427 C.2         1 EML       0.1969
     14 N6         -6.8810   27.9839   84.1386 N.2         1 EML      -0.3061
     15 C7         -4.9972   31.1304   78.7926 C.2         1 EML       0.0797
     16 N7         -3.9833   32.5949   82.3962 N.2         1 EML      -0.2843
     17 C8         -3.1101   31.2243   77.1021 C.2         1 EML       0.0048
     18 N8         -9.0660   28.8077   86.7323 N.4         1 EML       0.2558
     19 C9         -6.1971   30.5135   79.1583 C.2         1 EML      -0.0220
     20 C10        -5.0916   30.7453   76.3022 C.2         1 EML       0.0562
     21 C11        -6.2845   30.2145   83.7022 C.2         1 EML       0.1479
     22 C12        -6.8194   30.0222   84.9064 C.2         1 EML      -0.0058
     23 C13        -7.7094   28.2341   86.3661 C.3         1 EML       0.0137
     24 C14        -7.1702   28.7483   85.1206 C.2         1 EML       0.0332
     25 C15        -9.2472   29.0985   88.2312 C.3         1 EML       0.0096
     26 C16       -10.2826   28.2508   84.5019 C.3         1 EML      -0.0244
     27 C17       -10.7192   29.4971   88.6171 C.3         1 EML       0.0892
     28 C18        -8.3495   30.3262   88.6245 C.3         1 EML      -0.0168
     29 C19        -2.1118   33.9143   81.6133 C.3         1 EML      -0.0245
     30 C20        -8.8640   27.8803   89.1441 C.3         1 EML      -0.0168
     31 H1         -5.3435   31.8408   84.2229 H           1 EML       0.2327
     32 H2        -12.2300   30.3224   87.7511 H           1 EML       0.2097
     33 H3         -2.9665   32.8919   79.3583 H           1 EML       0.0922
     34 H4        -11.1533   28.3597   86.3981 H           1 EML       0.0812
     35 H5        -10.1026   26.9776   86.2463 H           1 EML       0.0812
     36 H6         -4.3809   30.5660   74.3820 H           1 EML       0.2577
     37 H7         -2.3109   31.4198   77.7058 H           1 EML       0.0660
     38 H8         -9.1049   29.7358   86.3025 H           1 EML       0.2059
     39 H9         -6.8247   29.9961   78.5413 H           1 EML       0.0468
     40 H10        -6.0854   30.5446   76.1824 H           1 EML       0.0974
     41 H11        -6.8398   30.7208   85.6152 H           1 EML       0.0280
     42 H12        -7.7565   27.1413   86.3356 H           1 EML       0.1036
     43 H13        -6.9450   28.4571   87.1057 H           1 EML       0.1036
     44 H14       -11.2528   27.9079   84.1389 H           1 EML       0.0281
     45 H15        -9.5151   27.6812   83.9797 H           1 EML       0.0281
     46 H16       -10.1752   29.3071   84.2584 H           1 EML       0.0281
     47 H17       -11.3665   28.6177   88.6247 H           1 EML       0.0616
     48 H18       -10.7736   29.9256   89.6241 H           1 EML       0.0616
     49 H19        -8.4994   30.6106   89.6648 H           1 EML       0.0288
     50 H20        -8.5881   31.1827   87.9945 H           1 EML       0.0288
     51 H21        -7.2905   30.1161   88.5066 H           1 EML       0.0288
     52 H22        -2.0253   34.1773   82.6698 H           1 EML       0.0384
     53 H23        -2.2529   34.8321   81.0416 H           1 EML       0.0384
     54 H24        -1.1760   33.4434   81.3039 H           1 EML       0.0384
     55 H25        -9.1228   28.0692   90.1894 H           1 EML       0.0288
     56 H26        -7.7929   27.6707   89.1166 H           1 EML       0.0288
     57 H27        -9.3926   26.9802   88.8195 H           1 EML       0.0288
@<TRIPOS>BOND
     1    15     1   1
     2     1    17   1
     3     1    20   2
     4     2    11   1
     5    21     2   1
     6    27     3   1
     7    14     4   1
     8    21     4   1
     9     7     5   2
    10     8     5   1
    11    13     6   2
    12     6    19   1
    13    16     7   1
    14     7    29   1
    15    13     8   1
    16     8    15   1
    17    18     9   1
    18     9    26   1
    19    10    12   1
    20    20    10   1
    21    11    13   1
    22    11    16   2
    23    17    12   2
    24    24    14   2
    25    15    19   2
    26    18    23   1
    27    25    18   1
    28    22    21   2
    29    24    22   1
    30    23    24   1
    31    25    27   1
    32    25    28   1
    33    25    30   1
    34     2    31   1
    35     3    32   1
    36     5    33   1
    37     9    34   1
    38     9    35   1
    39    10    36   1
    40    17    37   1
    41    18    38   1
    42    19    39   1
    43    20    40   1
    44    22    41   1
    45    23    42   1
    46    23    43   1
    47    26    44   1
    48    26    45   1
    49    26    46   1
    50    27    47   1
    51    27    48   1
    52    28    49   1
    53    28    50   1
    54    28    51   1
    55    29    52   1
    56    29    53   1
    57    29    54   1
    58    30    55   1
    59    30    56   1
    60    30    57   1
@<TRIPOS>SUBSTRUCTURE
     1  EML      1

