@<TRIPOS>MOLECULE
3myg_ligand_012
    57    60
SMALL
GAST_HUCK
****
This file was generated by PARSER (from files_GN.cpp)

@<TRIPOS>ATOM
      1 C1         -5.6486   29.1154   76.7949 C.2         1 EML       0.0195
      2 N1         -5.0909   31.2790   82.3356 N.pl3       1 EML      -0.2184
      3 O1         -0.6484   36.8227   83.1827 O.3         1 EML      -0.3892
      4 S1         -5.5673   32.2195   84.7387 S.3         1 EML       0.0206
      5 C2         -3.7402   30.9932   78.4413 C.2         1 EML       0.0730
      6 N2         -6.3510   29.5671   80.2876 N.2         1 EML      -0.3304
      7 C3         -3.0784   31.7713   79.3256 C.2         1 EML       0.0276
      8 N3         -4.8460   30.3220   78.8388 N.pl3       1 EML      -0.2136
      9 C4         -1.3023   36.1251   86.1306 C.3         1 EML      -0.0323
     10 N4         -5.4226   29.1418   74.5999 N.pl3       1 EML      -0.2209
     11 C5         -4.6226   31.1812   81.0671 C.2         1 EML       0.1947
     12 N5         -5.8748   27.9639   74.8992 N.2         1 EML      -0.2182
     13 C6         -5.2873   30.3700   80.1174 C.2         1 EML       0.1969
     14 N6         -4.3783   33.1752   85.3702 N.2         1 EML      -0.3061
     15 C7         -5.6635   29.4773   78.1628 C.2         1 EML       0.0797
     16 N7         -3.5373   31.8495   80.5866 N.2         1 EML      -0.2843
     17 C8         -6.0374   27.9016   76.2319 C.2         1 EML       0.0048
     18 N8         -2.4466   35.5799   85.2832 N.4         1 EML       0.2558
     19 C9         -6.5854   29.0010   79.0934 C.2         1 EML      -0.0220
     20 C10        -5.2706   29.8899   75.7056 C.2         1 EML       0.0562
     21 C11        -4.6064   31.9867   83.3560 C.2         1 EML       0.1479
     22 C12        -3.4220   32.5782   83.5057 C.2         1 EML      -0.0058
     23 C13        -2.1978   34.1072   85.0146 C.3         1 EML       0.0137
     24 C14        -3.3332   33.2856   84.6364 C.2         1 EML       0.0332
     25 C15        -2.9268   36.4785   84.1288 C.3         1 EML       0.0096
     26 C16        -1.7549   36.3032   87.5960 C.3         1 EML      -0.0244
     27 C17        -1.9874   36.4485   82.8755 C.3         1 EML       0.0892
     28 C18        -3.1186   37.9735   84.5858 C.3         1 EML      -0.0168
     29 C19        -1.8839   32.5012   78.9561 C.3         1 EML      -0.0245
     30 C20        -4.3564   36.0354   83.6527 C.3         1 EML      -0.0168
     31 H1         -5.9223   30.8048   82.5060 H           1 EML       0.2327
     32 H2         -0.1674   36.7766   82.3300 H           1 EML       0.2097
     33 H3         -3.3970   30.8919   77.5170 H           1 EML       0.0922
     34 H4         -0.9208   37.0846   85.7923 H           1 EML       0.0812
     35 H5         -0.4225   35.4715   86.1312 H           1 EML       0.0812
     36 H6         -5.2294   29.4501   73.7013 H           1 EML       0.2577
     37 H7         -6.3789   27.0852   76.7423 H           1 EML       0.0660
     38 H8         -3.2460   35.5790   85.9222 H           1 EML       0.2059
     39 H9         -7.3445   28.3419   78.9044 H           1 EML       0.0468
     40 H10        -4.9633   30.8627   75.7146 H           1 EML       0.0974
     41 H11        -2.6871   32.5334   82.8406 H           1 EML       0.0280
     42 H12        -1.8322   33.6231   85.9283 H           1 EML       0.1036
     43 H13        -1.3908   34.0131   84.2786 H           1 EML       0.1036
     44 H14        -0.9153   36.6418   88.2094 H           1 EML       0.0281
     45 H15        -2.1240   35.3564   87.9982 H           1 EML       0.0281
     46 H16        -2.5531   37.0473   87.6605 H           1 EML       0.0281
     47 H17        -1.9633   35.4502   82.4338 H           1 EML       0.0616
     48 H18        -2.3584   37.1340   82.1078 H           1 EML       0.0616
     49 H19        -3.6815   38.5598   83.8533 H           1 EML       0.0288
     50 H20        -2.1661   38.4904   84.7010 H           1 EML       0.0288
     51 H21        -3.6567   38.0120   85.5377 H           1 EML       0.0288
     52 H22        -1.4970   33.0934   79.7874 H           1 EML       0.0384
     53 H23        -2.1008   33.1769   78.1286 H           1 EML       0.0384
     54 H24        -1.1045   31.8053   78.6449 H           1 EML       0.0384
     55 H25        -4.8224   36.7764   82.9991 H           1 EML       0.0288
     56 H26        -5.0141   35.8830   84.5085 H           1 EML       0.0288
     57 H27        -4.3209   35.1179   83.0744 H           1 EML       0.0288
@<TRIPOS>BOND
     1    15     1   1
     2     1    17   1
     3     1    20   2
     4     2    11   1
     5    21     2   1
     6    27     3   1
     7    14     4   1
     8    21     4   1
     9     7     5   2
    10     8     5   1
    11    13     6   2
    12     6    19   1
    13    16     7   1
    14     7    29   1
    15    13     8   1
    16     8    15   1
    17    18     9   1
    18     9    26   1
    19    10    12   1
    20    20    10   1
    21    11    13   1
    22    11    16   2
    23    17    12   2
    24    24    14   2
    25    15    19   2
    26    18    23   1
    27    25    18   1
    28    22    21   2
    29    24    22   1
    30    23    24   1
    31    25    27   1
    32    25    28   1
    33    25    30   1
    34     2    31   1
    35     3    32   1
    36     5    33   1
    37     9    34   1
    38     9    35   1
    39    10    36   1
    40    17    37   1
    41    18    38   1
    42    19    39   1
    43    20    40   1
    44    22    41   1
    45    23    42   1
    46    23    43   1
    47    26    44   1
    48    26    45   1
    49    26    46   1
    50    27    47   1
    51    27    48   1
    52    28    49   1
    53    28    50   1
    54    28    51   1
    55    29    52   1
    56    29    53   1
    57    29    54   1
    58    30    55   1
    59    30    56   1
    60    30    57   1
@<TRIPOS>SUBSTRUCTURE
     1  EML      1

