@<TRIPOS>MOLECULE
3myg_ligand_039
    57    60
SMALL
GAST_HUCK
****
This file was generated by PARSER (from files_GN.cpp)

@<TRIPOS>ATOM
      1 C1         -6.3164   26.4268   88.1741 C.2         1 EML       0.0195
      2 N1         -7.0971   31.8173   85.4481 N.pl3       1 EML      -0.2184
      3 O1          0.2185   34.4382   84.8412 O.3         1 EML      -0.3892
      4 S1         -4.4337   31.8542   86.0252 S.3         1 EML       0.0206
      5 C2         -8.5547   28.7131   87.7372 C.2         1 EML       0.0730
      6 N2         -5.6052   29.1170   85.9145 N.2         1 EML      -0.3304
      7 C3         -9.3212   29.7713   87.3855 C.2         1 EML       0.0276
      8 N3         -7.3129   28.5663   87.2162 N.pl3       1 EML      -0.2136
      9 C4         -1.6571   33.6562   81.8465 C.3         1 EML      -0.0323
     10 N4         -5.5102   24.6692   89.2516 N.pl3       1 EML      -0.2209
     11 C5         -7.5165   30.7074   86.1086 C.2         1 EML       0.1947
     12 N5         -6.7553   24.7600   89.5911 N.2         1 EML      -0.2182
     13 C6         -6.7919   29.5134   86.3904 C.2         1 EML       0.1969
     14 N6         -3.5951   32.8222   84.9954 N.2         1 EML      -0.3061
     15 C7         -6.3786   27.5878   87.3528 C.2         1 EML       0.0797
     16 N7         -8.7830   30.7301   86.6044 N.2         1 EML      -0.2843
     17 C8         -7.2928   25.8181   88.9598 C.2         1 EML       0.0048
     18 N8         -2.2094   34.3030   83.0972 N.4         1 EML       0.2558
     19 C9         -5.3312   27.9526   86.5033 C.2         1 EML      -0.0220
     20 C10        -5.1864   25.6423   88.3941 C.2         1 EML       0.0562
     21 C11        -5.8532   32.1929   85.1404 C.2         1 EML       0.1479
     22 C12        -5.6011   33.1006   84.2025 C.2         1 EML      -0.0058
     23 C13        -3.7342   34.2824   83.0912 C.3         1 EML       0.0137
     24 C14        -4.3011   33.4126   84.1094 C.2         1 EML       0.0332
     25 C15        -1.5588   35.6119   83.5632 C.3         1 EML       0.0096
     26 C16        -2.0456   32.1648   81.6674 C.3         1 EML      -0.0244
     27 C17        -0.0225   35.4344   83.8512 C.3         1 EML       0.0892
     28 C18        -2.1826   36.0914   84.9281 C.3         1 EML      -0.0168
     29 C19       -10.6828   29.9226   87.8547 C.3         1 EML      -0.0245
     30 C20        -1.7133   36.7530   82.5072 C.3         1 EML      -0.0168
     31 H1         -7.7914   32.4478   85.1943 H           1 EML       0.2327
     32 H2          1.1927   34.4451   84.9745 H           1 EML       0.2097
     33 H3         -8.9229   28.0346   88.3537 H           1 EML       0.0922
     34 H4         -0.5688   33.6673   81.8388 H           1 EML       0.0812
     35 H5         -1.9829   34.2119   80.9639 H           1 EML       0.0812
     36 H6         -4.8950   23.9917   89.5723 H           1 EML       0.2577
     37 H7         -8.2737   26.0854   89.0516 H           1 EML       0.0660
     38 H8         -1.9410   33.6515   83.8366 H           1 EML       0.2059
     39 H9         -4.4656   27.4320   86.3458 H           1 EML       0.0468
     40 H10        -4.2570   25.7794   87.9997 H           1 EML       0.0974
     41 H11        -6.3029   33.4854   83.6170 H           1 EML       0.0280
     42 H12        -4.1353   33.9508   82.1294 H           1 EML       0.1036
     43 H13        -4.1643   35.2724   83.2341 H           1 EML       0.1036
     44 H14        -1.5149   31.7428   80.8107 H           1 EML       0.0281
     45 H15        -3.1143   32.0493   81.4875 H           1 EML       0.0281
     46 H16        -1.7765   31.5922   82.5564 H           1 EML       0.0281
     47 H17         0.5317   35.1659   82.9515 H           1 EML       0.0616
     48 H18         0.4203   36.3687   84.2093 H           1 EML       0.0616
     49 H19        -1.6196   36.9209   85.3655 H           1 EML       0.0288
     50 H20        -2.1934   35.2723   85.6511 H           1 EML       0.0288
     51 H21        -3.2038   36.4523   84.8150 H           1 EML       0.0288
     52 H22       -11.1399   30.8265   87.4530 H           1 EML       0.0384
     53 H23       -10.6968   29.9841   88.9431 H           1 EML       0.0384
     54 H24       -11.2856   29.0708   87.5376 H           1 EML       0.0384
     55 H25        -1.2530   37.6783   82.8626 H           1 EML       0.0288
     56 H26        -2.7613   36.9632   82.2980 H           1 EML       0.0288
     57 H27        -1.2311   36.4778   81.5679 H           1 EML       0.0288
@<TRIPOS>BOND
     1    15     1   1
     2     1    17   1
     3     1    20   2
     4     2    11   1
     5    21     2   1
     6    27     3   1
     7    14     4   1
     8    21     4   1
     9     7     5   2
    10     8     5   1
    11    13     6   2
    12     6    19   1
    13    16     7   1
    14     7    29   1
    15    13     8   1
    16     8    15   1
    17    18     9   1
    18     9    26   1
    19    10    12   1
    20    20    10   1
    21    11    13   1
    22    11    16   2
    23    17    12   2
    24    24    14   2
    25    15    19   2
    26    18    23   1
    27    25    18   1
    28    22    21   2
    29    24    22   1
    30    23    24   1
    31    25    27   1
    32    25    28   1
    33    25    30   1
    34     2    31   1
    35     3    32   1
    36     5    33   1
    37     9    34   1
    38     9    35   1
    39    10    36   1
    40    17    37   1
    41    18    38   1
    42    19    39   1
    43    20    40   1
    44    22    41   1
    45    23    42   1
    46    23    43   1
    47    26    44   1
    48    26    45   1
    49    26    46   1
    50    27    47   1
    51    27    48   1
    52    28    49   1
    53    28    50   1
    54    28    51   1
    55    29    52   1
    56    29    53   1
    57    29    54   1
    58    30    55   1
    59    30    56   1
    60    30    57   1
@<TRIPOS>SUBSTRUCTURE
     1  EML      1

