@<TRIPOS>MOLECULE
3myg_ligand_017
    57    60
SMALL
GAST_HUCK
****
This file was generated by PARSER (from files_GN.cpp)

@<TRIPOS>ATOM
      1 C1         -2.7740   35.2879   85.7995 C.2         1 EML       0.0195
      2 N1         -5.3011   30.3957   83.0995 N.pl3       1 EML      -0.2184
      3 O1         -5.7084   29.8275   74.6491 O.3         1 EML      -0.3892
      4 S1         -5.0860   31.9351   80.8322 S.3         1 EML       0.0206
      5 C2         -3.3029   32.1931   86.2187 C.2         1 EML       0.0730
      6 N2         -4.7567   33.5548   83.3497 N.2         1 EML      -0.3304
      7 C3         -3.6388   30.8859   86.2045 C.2         1 EML       0.0276
      8 N3         -3.6713   33.0005   85.1962 N.pl3       1 EML      -0.2136
      9 C4         -4.6582   29.1716   77.3585 C.3         1 EML      -0.0323
     10 N4         -1.4350   36.2804   87.2482 N.pl3       1 EML      -0.2209
     11 C5         -4.7297   31.1458   84.0765 C.2         1 EML       0.1947
     12 N5         -1.8753   37.2174   86.4691 N.2         1 EML      -0.2182
     13 C6         -4.4009   32.5319   84.1446 C.2         1 EML       0.1969
     14 N6         -5.7522   31.1659   79.5334 N.2         1 EML      -0.3061
     15 C7         -3.4977   34.3361   85.0281 C.2         1 EML       0.0797
     16 N7         -4.3353   30.4166   85.1550 N.2         1 EML      -0.2843
     17 C8         -2.6928   36.6605   85.5628 C.2         1 EML       0.0048
     18 N8         -6.1799   29.2093   77.3311 N.4         1 EML       0.2558
     19 C9         -4.1974   34.6582   83.8615 C.2         1 EML      -0.0220
     20 C10        -1.9382   35.0890   86.8927 C.2         1 EML       0.0562
     21 C11        -5.5660   30.6230   81.8131 C.2         1 EML       0.1479
     22 C12        -6.1125   29.6622   81.0647 C.2         1 EML      -0.0058
     23 C13        -6.7928   29.1498   78.7235 C.3         1 EML       0.0137
     24 C14        -6.2201   29.9978   79.7709 C.2         1 EML       0.0332
     25 C15        -6.8559   28.3251   76.2652 C.3         1 EML       0.0096
     26 C16        -4.0137   30.5339   76.9945 C.3         1 EML      -0.0244
     27 C17        -6.1549   28.4879   74.8607 C.3         1 EML       0.0892
     28 C18        -8.3606   28.7276   76.0424 C.3         1 EML      -0.0168
     29 C19        -3.2363   29.9784   87.2568 C.3         1 EML      -0.0245
     30 C20        -6.8463   26.8019   76.6466 C.3         1 EML      -0.0168
     31 H1         -5.4909   29.4839   83.3799 H           1 EML       0.2327
     32 H2         -5.2662   29.8032   73.7773 H           1 EML       0.2097
     33 H3         -2.8305   32.5620   87.0091 H           1 EML       0.0922
     34 H4         -4.2517   28.4475   76.6575 H           1 EML       0.0812
     35 H5         -4.2654   28.8695   78.3338 H           1 EML       0.0812
     36 H6         -0.8111   36.4154   87.9773 H           1 EML       0.2577
     37 H7         -3.1755   37.1769   84.8292 H           1 EML       0.0660
     38 H8         -6.3916   30.1610   77.0203 H           1 EML       0.2059
     39 H9         -4.2739   35.5851   83.4334 H           1 EML       0.0468
     40 H10        -1.6869   34.2054   87.3359 H           1 EML       0.0974
     41 H11        -6.3889   28.7768   81.4295 H           1 EML       0.0280
     42 H12        -6.8034   28.1101   79.0686 H           1 EML       0.1036
     43 H13        -7.8303   29.4841   78.6616 H           1 EML       0.1036
     44 H14        -2.9258   30.4647   77.0852 H           1 EML       0.0281
     45 H15        -4.3681   31.3235   77.6605 H           1 EML       0.0281
     46 H16        -4.2500   30.8050   75.9637 H           1 EML       0.0281
     47 H17        -5.2983   27.8139   74.7659 H           1 EML       0.0616
     48 H18        -6.8406   28.2272   74.0451 H           1 EML       0.0616
     49 H19        -8.8077   28.1783   75.2105 H           1 EML       0.0288
     50 H20        -8.4416   29.7931   75.8240 H           1 EML       0.0288
     51 H21        -8.9745   28.5084   76.9170 H           1 EML       0.0288
     52 H22        -3.5816   28.9622   87.0634 H           1 EML       0.0384
     53 H23        -3.6515   30.3070   88.2097 H           1 EML       0.0384
     54 H24        -2.1481   29.9594   87.3356 H           1 EML       0.0384
     55 H25        -7.2736   26.1936   75.8383 H           1 EML       0.0288
     56 H26        -7.4380   26.6157   77.5479 H           1 EML       0.0288
     57 H27        -5.8296   26.4467   76.8282 H           1 EML       0.0288
@<TRIPOS>BOND
     1    15     1   1
     2     1    17   1
     3     1    20   2
     4     2    11   1
     5    21     2   1
     6    27     3   1
     7    14     4   1
     8    21     4   1
     9     7     5   2
    10     8     5   1
    11    13     6   2
    12     6    19   1
    13    16     7   1
    14     7    29   1
    15    13     8   1
    16     8    15   1
    17    18     9   1
    18     9    26   1
    19    10    12   1
    20    20    10   1
    21    11    13   1
    22    11    16   2
    23    17    12   2
    24    24    14   2
    25    15    19   2
    26    18    23   1
    27    25    18   1
    28    22    21   2
    29    24    22   1
    30    23    24   1
    31    25    27   1
    32    25    28   1
    33    25    30   1
    34     2    31   1
    35     3    32   1
    36     5    33   1
    37     9    34   1
    38     9    35   1
    39    10    36   1
    40    17    37   1
    41    18    38   1
    42    19    39   1
    43    20    40   1
    44    22    41   1
    45    23    42   1
    46    23    43   1
    47    26    44   1
    48    26    45   1
    49    26    46   1
    50    27    47   1
    51    27    48   1
    52    28    49   1
    53    28    50   1
    54    28    51   1
    55    29    52   1
    56    29    53   1
    57    29    54   1
    58    30    55   1
    59    30    56   1
    60    30    57   1
@<TRIPOS>SUBSTRUCTURE
     1  EML      1

