@<TRIPOS>MOLECULE
3myg_ligand_059
    57    60
SMALL
GAST_HUCK
****
This file was generated by PARSER (from files_GN.cpp)

@<TRIPOS>ATOM
      1 C1         -9.0191   21.4944   81.2640 C.2         1 EML       0.0195
      2 N1         -7.2838   26.9524   82.8917 N.pl3       1 EML      -0.2184
      3 O1         -4.7165   33.4296   78.1400 O.3         1 EML      -0.3892
      4 S1         -6.5251   29.1515   84.1200 S.3         1 EML       0.0206
      5 C2         -8.5650   24.2604   80.0235 C.2         1 EML       0.0730
      6 N2         -7.8938   24.0804   83.4568 N.2         1 EML      -0.3304
      7 C3         -8.3306   25.5475   79.6875 C.2         1 EML       0.0276
      8 N3         -8.3943   23.8759   81.3064 N.pl3       1 EML      -0.2136
      9 C4         -5.7710   30.3440   78.5553 C.3         1 EML      -0.0323
     10 N4        -10.2932   19.9263   80.4092 N.pl3       1 EML      -0.2209
     11 C5         -7.7113   26.0747   81.9541 C.2         1 EML       0.1947
     12 N5         -9.0677   19.5635   80.1877 N.2         1 EML      -0.2182
     13 C6         -7.9784   24.7233   82.2812 C.2         1 EML       0.1969
     14 N6         -6.2493   30.4431   83.1333 N.2         1 EML      -0.3061
     15 C7         -8.5784   22.6728   81.8750 C.2         1 EML       0.0797
     16 N7         -7.9201   26.3981   80.6486 N.2         1 EML      -0.2843
     17 C8         -8.2445   20.4957   80.6925 C.2         1 EML       0.0048
     18 N8         -5.1886   30.8295   79.8707 N.4         1 EML       0.2558
     19 C9         -8.2613   22.8133   83.2209 C.2         1 EML      -0.0220
     20 C10       -10.3310   21.0985   81.0637 C.2         1 EML       0.0562
     21 C11        -6.9592   28.2413   82.7505 C.2         1 EML       0.1479
     22 C12        -6.8793   28.9917   81.6501 C.2         1 EML      -0.0058
     23 C13        -6.2658   31.2474   80.8637 C.3         1 EML       0.0137
     24 C14        -6.4654   30.2361   81.8903 C.2         1 EML       0.0332
     25 C15        -3.9507   31.7383   79.8284 C.3         1 EML       0.0096
     26 C16        -5.2049   28.9914   78.0490 C.3         1 EML      -0.0244
     27 C17        -4.2335   33.2412   79.4659 C.3         1 EML       0.0892
     28 C18        -2.8603   31.2167   78.8327 C.3         1 EML      -0.0168
     29 C19        -8.4902   26.0311   78.3360 C.3         1 EML      -0.0245
     30 C20        -3.2714   31.6879   81.2441 C.3         1 EML      -0.0168
     31 H1         -7.1959   26.5962   83.7950 H           1 EML       0.2327
     32 H2         -3.9206   33.6272   77.6045 H           1 EML       0.2097
     33 H3         -8.8642   23.6062   79.3380 H           1 EML       0.0922
     34 H4         -5.6612   31.0982   77.7777 H           1 EML       0.0812
     35 H5         -6.8440   30.1597   78.6358 H           1 EML       0.0812
     36 H6        -11.0775   19.4234   80.1356 H           1 EML       0.2577
     37 H7         -7.2263   20.4727   80.6473 H           1 EML       0.0660
     38 H8         -4.8141   29.9684   80.2771 H           1 EML       0.2059
     39 H9         -8.3147   22.0694   83.9124 H           1 EML       0.0468
     40 H10       -11.1762   21.5977   81.3520 H           1 EML       0.0974
     41 H11        -7.0664   28.6706   80.7348 H           1 EML       0.0280
     42 H12        -7.2317   31.4455   80.3890 H           1 EML       0.1036
     43 H13        -6.0283   32.1804   81.3714 H           1 EML       0.1036
     44 H14        -5.8051   28.6321   77.2104 H           1 EML       0.0281
     45 H15        -5.2495   28.2413   78.8392 H           1 EML       0.0281
     46 H16        -4.1764   29.0742   77.7074 H           1 EML       0.0281
     47 H17        -4.9691   33.6795   80.1358 H           1 EML       0.0616
     48 H18        -3.3219   33.8377   79.5725 H           1 EML       0.0616
     49 H19        -1.9470   31.8139   78.8861 H           1 EML       0.0288
     50 H20        -3.2063   31.2538   77.7982 H           1 EML       0.0288
     51 H21        -2.6049   30.1842   79.0710 H           1 EML       0.0288
     52 H22        -8.3454   27.1135   78.2773 H           1 EML       0.0384
     53 H23        -9.4943   25.7993   77.9821 H           1 EML       0.0384
     54 H24        -7.7620   25.5475   77.6825 H           1 EML       0.0384
     55 H25        -2.2788   32.1442   81.2346 H           1 EML       0.0288
     56 H26        -3.1668   30.6532   81.5764 H           1 EML       0.0288
     57 H27        -3.8553   32.2203   81.9940 H           1 EML       0.0288
@<TRIPOS>BOND
     1    15     1   1
     2     1    17   1
     3     1    20   2
     4     2    11   1
     5    21     2   1
     6    27     3   1
     7    14     4   1
     8    21     4   1
     9     7     5   2
    10     8     5   1
    11    13     6   2
    12     6    19   1
    13    16     7   1
    14     7    29   1
    15    13     8   1
    16     8    15   1
    17    18     9   1
    18     9    26   1
    19    10    12   1
    20    20    10   1
    21    11    13   1
    22    11    16   2
    23    17    12   2
    24    24    14   2
    25    15    19   2
    26    18    23   1
    27    25    18   1
    28    22    21   2
    29    24    22   1
    30    23    24   1
    31    25    27   1
    32    25    28   1
    33    25    30   1
    34     2    31   1
    35     3    32   1
    36     5    33   1
    37     9    34   1
    38     9    35   1
    39    10    36   1
    40    17    37   1
    41    18    38   1
    42    19    39   1
    43    20    40   1
    44    22    41   1
    45    23    42   1
    46    23    43   1
    47    26    44   1
    48    26    45   1
    49    26    46   1
    50    27    47   1
    51    27    48   1
    52    28    49   1
    53    28    50   1
    54    28    51   1
    55    29    52   1
    56    29    53   1
    57    29    54   1
    58    30    55   1
    59    30    56   1
    60    30    57   1
@<TRIPOS>SUBSTRUCTURE
     1  EML      1

