@<TRIPOS>MOLECULE
3myg_ligand_065
    57    60
SMALL
GAST_HUCK
****
This file was generated by PARSER (from files_GN.cpp)

@<TRIPOS>ATOM
      1 C1         -6.4863   25.2640   88.7914 C.2         1 EML       0.0195
      2 N1         -3.8986   30.0625   86.3938 N.pl3       1 EML      -0.2184
      3 O1         -3.0242   31.9912   78.3147 O.3         1 EML      -0.3892
      4 S1         -2.6074   32.3097   86.1007 S.3         1 EML       0.0206
      5 C2         -7.0063   27.3438   86.5093 C.2         1 EML       0.0730
      6 N2         -3.9776   27.7565   88.2147 N.2         1 EML      -0.3304
      7 C3         -7.0159   28.3259   85.5765 C.2         1 EML       0.0276
      8 N3         -5.9676   27.2439   87.3682 N.pl3       1 EML      -0.2136
      9 C4         -5.2377   32.4553   80.5387 C.3         1 EML      -0.0323
     10 N4         -8.1724   24.0175   89.4457 N.pl3       1 EML      -0.2209
     11 C5         -4.9113   29.1582   86.3804 C.2         1 EML       0.1947
     12 N5         -7.1091   23.2920   89.6154 N.2         1 EML      -0.2182
     13 C6         -4.9168   28.0999   87.3194 C.2         1 EML       0.1969
     14 N6         -2.9885   33.1576   84.7325 N.2         1 EML      -0.3061
     15 C7         -5.6979   26.3379   88.3310 C.2         1 EML       0.0797
     16 N7         -5.9923   29.2010   85.5506 N.2         1 EML      -0.2843
     17 C8         -6.0444   24.0217   89.2337 C.2         1 EML       0.0048
     18 N8         -4.0229   32.4386   81.4443 N.4         1 EML       0.2558
     19 C9         -4.4400   26.6651   88.8415 C.2         1 EML      -0.0220
     20 C10        -7.8642   25.2219   88.9431 C.2         1 EML       0.0562
     21 C11        -3.7112   31.1218   85.6121 C.2         1 EML       0.1479
     22 C12        -4.2407   31.4153   84.4261 C.2         1 EML      -0.0058
     23 C13        -4.3092   33.1957   82.7304 C.3         1 EML       0.0137
     24 C14        -3.8049   32.5734   83.9395 C.2         1 EML       0.0332
     25 C15        -2.6710   32.6762   80.7511 C.3         1 EML       0.0096
     26 C16        -6.0654   31.1588   80.6934 C.3         1 EML      -0.0244
     27 C17        -2.4340   31.6519   79.5703 C.3         1 EML       0.0892
     28 C18        -1.4993   32.4305   81.7653 C.3         1 EML      -0.0168
     29 C19        -8.0900   28.4454   84.6153 C.3         1 EML      -0.0245
     30 C20        -2.5077   34.1358   80.2119 C.3         1 EML      -0.0168
     31 H1         -3.2507   29.9534   87.1110 H           1 EML       0.2327
     32 H2         -2.4326   31.5831   77.6200 H           1 EML       0.2097
     33 H3         -7.7430   26.6799   86.5399 H           1 EML       0.0922
     34 H4         -4.9810   32.5314   79.4866 H           1 EML       0.0812
     35 H5         -5.8806   33.3122   80.7286 H           1 EML       0.0812
     36 H6         -9.0779   23.7252   89.6681 H           1 EML       0.2577
     37 H7         -5.0744   23.6935   89.2486 H           1 EML       0.0660
     38 H8         -3.9551   31.4621   81.7516 H           1 EML       0.2059
     39 H9         -3.9458   26.1779   89.5926 H           1 EML       0.0468
     40 H10        -8.5320   25.9628   88.7472 H           1 EML       0.0974
     41 H11        -4.8779   30.8326   83.9331 H           1 EML       0.0280
     42 H12        -5.3922   33.2833   82.9075 H           1 EML       0.1036
     43 H13        -3.9447   34.2192   82.6491 H           1 EML       0.1036
     44 H14        -6.9457   31.1980   80.0471 H           1 EML       0.0281
     45 H15        -6.3981   31.0323   81.7227 H           1 EML       0.0281
     46 H16        -5.4601   30.2918   80.4143 H           1 EML       0.0281
     47 H17        -1.3693   31.5404   79.3616 H           1 EML       0.0616
     48 H18        -2.8149   30.6670   79.8567 H           1 EML       0.0616
     49 H19        -0.5254   32.5251   81.2777 H           1 EML       0.0288
     50 H20        -1.5709   31.4278   82.1970 H           1 EML       0.0288
     51 H21        -1.5006   33.1681   82.5685 H           1 EML       0.0288
     52 H22        -7.9276   29.2905   83.9427 H           1 EML       0.0384
     53 H23        -9.0407   28.5942   85.1317 H           1 EML       0.0384
     54 H24        -8.1578   27.5363   84.0132 H           1 EML       0.0384
     55 H25        -1.5793   34.2380   79.6463 H           1 EML       0.0288
     56 H26        -2.4797   34.8670   81.0247 H           1 EML       0.0288
     57 H27        -3.3326   34.3967   79.5519 H           1 EML       0.0288
@<TRIPOS>BOND
     1    15     1   1
     2     1    17   1
     3     1    20   2
     4     2    11   1
     5    21     2   1
     6    27     3   1
     7    14     4   1
     8    21     4   1
     9     7     5   2
    10     8     5   1
    11    13     6   2
    12     6    19   1
    13    16     7   1
    14     7    29   1
    15    13     8   1
    16     8    15   1
    17    18     9   1
    18     9    26   1
    19    10    12   1
    20    20    10   1
    21    11    13   1
    22    11    16   2
    23    17    12   2
    24    24    14   2
    25    15    19   2
    26    18    23   1
    27    25    18   1
    28    22    21   2
    29    24    22   1
    30    23    24   1
    31    25    27   1
    32    25    28   1
    33    25    30   1
    34     2    31   1
    35     3    32   1
    36     5    33   1
    37     9    34   1
    38     9    35   1
    39    10    36   1
    40    17    37   1
    41    18    38   1
    42    19    39   1
    43    20    40   1
    44    22    41   1
    45    23    42   1
    46    23    43   1
    47    26    44   1
    48    26    45   1
    49    26    46   1
    50    27    47   1
    51    27    48   1
    52    28    49   1
    53    28    50   1
    54    28    51   1
    55    29    52   1
    56    29    53   1
    57    29    54   1
    58    30    55   1
    59    30    56   1
    60    30    57   1
@<TRIPOS>SUBSTRUCTURE
     1  EML      1

