@<TRIPOS>MOLECULE
3myg_ligand_024
    57    60
SMALL
GAST_HUCK
****
This file was generated by PARSER (from files_GN.cpp)

@<TRIPOS>ATOM
      1 C1         -8.4963   30.0901   90.7567 C.2         1 EML       0.0195
      2 N1         -9.9415   27.7755   85.4947 N.pl3       1 EML      -0.2184
      3 O1        -10.5851   20.7594   80.9183 O.3         1 EML      -0.3892
      4 S1        -11.2022   27.2843   83.2713 S.3         1 EML       0.0206
      5 C2         -7.0980   29.1848   88.1355 C.2         1 EML       0.0730
      6 N2        -10.5685   28.7365   88.1882 N.2         1 EML      -0.3304
      7 C3         -6.7042   28.6897   86.9372 C.2         1 EML       0.0276
      8 N3         -8.4062   29.1743   88.4587 N.pl3       1 EML      -0.2136
      9 C4         -7.5042   23.2668   82.8992 C.3         1 EML      -0.0323
     10 N4         -7.6436   31.4849   92.2231 N.pl3       1 EML      -0.2209
     11 C5         -8.9759   28.1857   86.3503 C.2         1 EML       0.1947
     12 N5         -7.7921   30.3553   92.8462 N.2         1 EML      -0.2182
     13 C6         -9.3501   28.6912   87.6159 C.2         1 EML       0.1969
     14 N6        -10.3413   26.4290   82.1505 N.2         1 EML      -0.3061
     15 C7         -9.0391   29.5391   89.5885 C.2         1 EML       0.0797
     16 N7         -7.6391   28.2115   86.0823 N.2         1 EML      -0.2843
     17 C8         -8.3218   29.4677   91.9851 C.2         1 EML       0.0048
     18 N8         -8.3670   23.7619   81.7595 N.4         1 EML       0.2558
     19 C9        -10.3918   29.2517   89.4103 C.2         1 EML      -0.0220
     20 C10        -8.0567   31.3947   90.9533 C.2         1 EML       0.0562
     21 C11        -9.8430   27.2255   84.2903 C.2         1 EML       0.1479
     22 C12        -8.8434   26.5451   83.7253 C.2         1 EML      -0.0058
     23 C13        -8.3140   25.2731   81.6365 C.3         1 EML       0.0137
     24 C14        -9.1629   26.0775   82.5089 C.2         1 EML       0.0332
     25 C15        -9.6968   23.0338   81.5241 C.3         1 EML       0.0096
     26 C16        -6.0397   23.0975   82.4424 C.3         1 EML      -0.0244
     27 C17        -9.4037   21.5469   81.0919 C.3         1 EML       0.0892
     28 C18       -10.5020   23.6582   80.3255 C.3         1 EML      -0.0168
     29 C19        -5.3042   28.6601   86.5545 C.3         1 EML      -0.0245
     30 C20       -10.6222   23.0151   82.7894 C.3         1 EML      -0.0168
     31 H1        -10.8470   27.9527   85.7911 H           1 EML       0.2327
     32 H2        -10.4432   19.9691   81.4821 H           1 EML       0.2097
     33 H3         -6.4267   29.5300   88.7818 H           1 EML       0.0922
     34 H4         -7.8259   22.3077   83.2896 H           1 EML       0.0812
     35 H5         -7.5166   23.9418   83.7565 H           1 EML       0.0812
     36 H6         -7.2974   32.2930   92.6394 H           1 EML       0.2577
     37 H7         -8.5437   28.4914   92.2021 H           1 EML       0.0660
     38 H8         -7.8408   23.4846   80.9283 H           1 EML       0.2059
     39 H9        -11.1353   29.4137   90.0902 H           1 EML       0.0468
     40 H10        -8.0759   32.1516   90.2697 H           1 EML       0.0974
     41 H11        -7.9711   26.3750   84.1667 H           1 EML       0.0280
     42 H12        -8.5348   25.5340   80.5926 H           1 EML       0.1036
     43 H13        -7.2810   25.6214   81.7744 H           1 EML       0.1036
     44 H14        -5.4373   22.6904   83.2603 H           1 EML       0.0281
     45 H15        -5.6177   24.0614   82.1421 H           1 EML       0.0281
     46 H16        -5.9839   22.4095   81.5970 H           1 EML       0.0281
     47 H17        -8.8465   21.5307   80.1481 H           1 EML       0.0616
     48 H18        -8.7950   21.0277   81.8355 H           1 EML       0.0616
     49 H19       -11.3883   23.0616   80.0715 H           1 EML       0.0288
     50 H20        -9.8694   23.7159   79.4308 H           1 EML       0.0288
     51 H21       -10.8586   24.6631   80.5670 H           1 EML       0.0288
     52 H22        -5.1741   28.2430   85.5530 H           1 EML       0.0384
     53 H23        -4.7400   28.0433   87.2581 H           1 EML       0.0384
     54 H24        -4.8944   29.6723   86.5596 H           1 EML       0.0384
     55 H25       -11.5970   22.5662   82.5570 H           1 EML       0.0288
     56 H26       -10.8087   24.0243   83.1608 H           1 EML       0.0288
     57 H27       -10.1750   22.4306   83.5975 H           1 EML       0.0288
@<TRIPOS>BOND
     1    15     1   1
     2     1    17   1
     3     1    20   2
     4     2    11   1
     5    21     2   1
     6    27     3   1
     7    14     4   1
     8    21     4   1
     9     7     5   2
    10     8     5   1
    11    13     6   2
    12     6    19   1
    13    16     7   1
    14     7    29   1
    15    13     8   1
    16     8    15   1
    17    18     9   1
    18     9    26   1
    19    10    12   1
    20    20    10   1
    21    11    13   1
    22    11    16   2
    23    17    12   2
    24    24    14   2
    25    15    19   2
    26    18    23   1
    27    25    18   1
    28    22    21   2
    29    24    22   1
    30    23    24   1
    31    25    27   1
    32    25    28   1
    33    25    30   1
    34     2    31   1
    35     3    32   1
    36     5    33   1
    37     9    34   1
    38     9    35   1
    39    10    36   1
    40    17    37   1
    41    18    38   1
    42    19    39   1
    43    20    40   1
    44    22    41   1
    45    23    42   1
    46    23    43   1
    47    26    44   1
    48    26    45   1
    49    26    46   1
    50    27    47   1
    51    27    48   1
    52    28    49   1
    53    28    50   1
    54    28    51   1
    55    29    52   1
    56    29    53   1
    57    29    54   1
    58    30    55   1
    59    30    56   1
    60    30    57   1
@<TRIPOS>SUBSTRUCTURE
     1  EML      1

