@<TRIPOS>MOLECULE
3myg_ligand_074
    57    60
SMALL
GAST_HUCK
****
This file was generated by PARSER (from files_GN.cpp)

@<TRIPOS>ATOM
      1 C1         -5.3749   29.8989   78.1467 C.2         1 EML       0.0195
      2 N1         -8.7927   28.8785   83.1357 N.pl3       1 EML      -0.2184
      3 O1         -8.6488   22.9069   82.7047 O.3         1 EML      -0.3892
      4 S1        -10.5881   27.5659   84.4447 S.3         1 EML       0.0206
      5 C2         -5.6996   30.7378   81.1467 C.2         1 EML       0.0730
      6 N2         -8.0864   28.4657   80.0014 N.2         1 EML      -0.3304
      7 C3         -5.9885   30.9429   82.4485 C.2         1 EML       0.0276
      8 N3         -6.4343   29.8647   80.4242 N.pl3       1 EML      -0.2136
      9 C4        -10.3300   24.1538   79.9831 C.3         1 EML      -0.0323
     10 N4         -3.4966   30.3795   77.0939 N.pl3       1 EML      -0.2209
     11 C5         -7.8372   29.4046   82.3284 C.2         1 EML       0.1947
     12 N5         -4.4418   30.4974   76.2168 N.2         1 EML      -0.2182
     13 C6         -7.5018   29.2077   80.9546 C.2         1 EML       0.1969
     14 N6        -11.4707   26.4709   83.5924 N.2         1 EML      -0.3061
     15 C7         -6.3302   29.5172   79.1196 C.2         1 EML       0.0797
     16 N7         -7.0274   30.2805   82.9833 N.2         1 EML      -0.2843
     17 C8         -5.6114   30.2068   76.8107 C.2         1 EML       0.0048
     18 N8        -11.3228   24.1070   81.1250 N.4         1 EML       0.2558
     19 C9         -7.3927   28.6467   78.8722 C.2         1 EML      -0.0220
     20 C10        -3.9970   30.0132   78.2836 C.2         1 EML       0.0562
     21 C11        -9.7480   27.9575   83.0176 C.2         1 EML       0.1479
     22 C12       -10.2199   27.2412   81.9960 C.2         1 EML      -0.0058
     23 C13       -11.8863   25.4760   81.4608 C.3         1 EML       0.0137
     24 C14       -11.1589   26.3582   82.3603 C.2         1 EML       0.0332
     25 C15       -11.1364   23.0649   82.2449 C.3         1 EML       0.0096
     26 C16        -8.8593   24.5643   80.2355 C.3         1 EML      -0.0244
     27 C17        -9.9216   23.2680   83.2265 C.3         1 EML       0.0892
     28 C18       -11.0374   21.6260   81.6282 C.3         1 EML      -0.0168
     29 C19        -5.2303   31.8597   83.2736 C.3         1 EML      -0.0245
     30 C20       -12.4292   23.0382   83.1410 C.3         1 EML      -0.0168
     31 H1         -8.7419   29.2323   84.0390 H           1 EML       0.2327
     32 H2         -8.0377   22.9347   83.4690 H           1 EML       0.2097
     33 H3         -4.9700   31.2560   80.7195 H           1 EML       0.0922
     34 H4        -10.7124   24.8182   79.2025 H           1 EML       0.0812
     35 H5        -10.3166   23.1737   79.4989 H           1 EML       0.0812
     36 H6         -2.5534   30.5243   76.9140 H           1 EML       0.2577
     37 H7         -6.5195   30.2220   76.3491 H           1 EML       0.0660
     38 H8        -12.1286   23.7040   80.6396 H           1 EML       0.2059
     39 H9         -7.6108   28.1916   77.9809 H           1 EML       0.0468
     40 H10        -3.4389   29.8166   79.1162 H           1 EML       0.0974
     41 H11        -9.9413   27.3506   81.0592 H           1 EML       0.0280
     42 H12       -12.8974   25.3523   81.8508 H           1 EML       0.1036
     43 H13       -12.0591   26.0314   80.5322 H           1 EML       0.1036
     44 H14        -8.4368   25.0287   79.3425 H           1 EML       0.0281
     45 H15        -8.2546   23.6850   80.4598 H           1 EML       0.0281
     46 H16        -8.7708   25.2687   81.0582 H           1 EML       0.0281
     47 H17        -9.8678   24.2993   83.5574 H           1 EML       0.0616
     48 H18       -10.0505   22.6489   84.1207 H           1 EML       0.0616
     49 H19       -11.0372   20.8551   82.4017 H           1 EML       0.0288
     50 H20       -10.1206   21.4979   81.0512 H           1 EML       0.0288
     51 H21       -11.8833   21.4369   80.9627 H           1 EML       0.0288
     52 H22        -5.6099   31.8874   84.2969 H           1 EML       0.0384
     53 H23        -5.2893   32.8681   82.8613 H           1 EML       0.0384
     54 H24        -4.1855   31.5473   83.3065 H           1 EML       0.0384
     55 H25       -12.4365   22.1785   83.8159 H           1 EML       0.0288
     56 H26       -13.3278   22.9849   82.5218 H           1 EML       0.0288
     57 H27       -12.4920   23.9301   83.7666 H           1 EML       0.0288
@<TRIPOS>BOND
     1    15     1   1
     2     1    17   1
     3     1    20   2
     4     2    11   1
     5    21     2   1
     6    27     3   1
     7    14     4   1
     8    21     4   1
     9     7     5   2
    10     8     5   1
    11    13     6   2
    12     6    19   1
    13    16     7   1
    14     7    29   1
    15    13     8   1
    16     8    15   1
    17    18     9   1
    18     9    26   1
    19    10    12   1
    20    20    10   1
    21    11    13   1
    22    11    16   2
    23    17    12   2
    24    24    14   2
    25    15    19   2
    26    18    23   1
    27    25    18   1
    28    22    21   2
    29    24    22   1
    30    23    24   1
    31    25    27   1
    32    25    28   1
    33    25    30   1
    34     2    31   1
    35     3    32   1
    36     5    33   1
    37     9    34   1
    38     9    35   1
    39    10    36   1
    40    17    37   1
    41    18    38   1
    42    19    39   1
    43    20    40   1
    44    22    41   1
    45    23    42   1
    46    23    43   1
    47    26    44   1
    48    26    45   1
    49    26    46   1
    50    27    47   1
    51    27    48   1
    52    28    49   1
    53    28    50   1
    54    28    51   1
    55    29    52   1
    56    29    53   1
    57    29    54   1
    58    30    55   1
    59    30    56   1
    60    30    57   1
@<TRIPOS>SUBSTRUCTURE
     1  EML      1

