@<TRIPOS>MOLECULE
3myg_ligand_054
    57    60
SMALL
GAST_HUCK
****
This file was generated by PARSER (from files_GN.cpp)

@<TRIPOS>ATOM
      1 C1         -2.6755   32.5509   91.6049 C.2         1 EML       0.0195
      2 N1         -2.7946   31.4854   85.6278 N.pl3       1 EML      -0.2184
      3 O1         -4.6692   37.2781   84.1688 O.3         1 EML      -0.3892
      4 S1         -2.4181   32.3055   83.2026 S.3         1 EML       0.0206
      5 C2         -3.3144   30.3360   89.5484 C.2         1 EML       0.0730
      6 N2         -2.5245   33.4332   88.1615 N.2         1 EML      -0.3304
      7 C3         -3.6317   29.5427   88.5043 C.2         1 EML       0.0276
      8 N3         -2.9026   31.6099   89.3269 N.pl3       1 EML      -0.2136
      9 C4         -0.9309   36.5751   81.9906 C.3         1 EML      -0.0323
     10 N4         -3.1517   32.8597   93.7321 N.pl3       1 EML      -0.2209
     11 C5         -2.9757   31.2614   86.9572 C.2         1 EML       0.1947
     12 N5         -2.1382   32.0382   93.7099 N.2         1 EML      -0.2182
     13 C6         -2.7567   32.1122   88.0765 C.2         1 EML       0.1969
     14 N6         -1.4805   33.6483   83.0170 N.2         1 EML      -0.3061
     15 C7         -2.6789   32.6056   90.2157 C.2         1 EML       0.0797
     16 N7         -3.4264   30.0154   87.2721 N.2         1 EML      -0.2843
     17 C8         -1.8252   31.8136   92.4280 C.2         1 EML       0.0048
     18 N8         -0.9082   36.6786   83.5005 N.4         1 EML       0.2558
     19 C9         -2.4675   33.7507   89.4531 C.2         1 EML      -0.0220
     20 C10        -3.5060   33.2243   92.4947 C.2         1 EML       0.0562
     21 C11        -2.2935   32.4759   84.8929 C.2         1 EML       0.1479
     22 C12        -1.6050   33.5839   85.1914 C.2         1 EML      -0.0058
     23 C13        -0.3415   35.4310   84.1434 C.3         1 EML       0.0137
     24 C14        -1.1824   34.2505   84.1168 C.2         1 EML       0.0332
     25 C15        -2.1557   37.3204   84.1362 C.3         1 EML       0.0096
     26 C16         0.3124   35.9069   81.3508 C.3         1 EML      -0.0244
     27 C17        -3.5013   36.8645   83.4673 C.3         1 EML       0.0892
     28 C18        -2.0325   38.8848   84.0011 C.3         1 EML      -0.0168
     29 C19        -4.2118   28.2336   88.7018 C.3         1 EML      -0.0245
     30 C20        -2.2687   37.0073   85.6842 C.3         1 EML      -0.0168
     31 H1         -3.0794   30.7313   85.0869 H           1 EML       0.2327
     32 H2         -5.4356   36.8576   83.6957 H           1 EML       0.2097
     33 H3         -3.4703   30.0073   90.4839 H           1 EML       0.0922
     34 H4         -0.9897   37.5556   81.5180 H           1 EML       0.0812
     35 H5         -1.8178   36.0452   81.6516 H           1 EML       0.0812
     36 H6         -3.5720   33.1807   94.5414 H           1 EML       0.2577
     37 H7         -1.0459   31.2207   92.1161 H           1 EML       0.0660
     38 H8         -0.1697   37.3703   83.6877 H           1 EML       0.2059
     39 H9         -2.2868   34.6962   89.8007 H           1 EML       0.0468
     40 H10        -4.2615   33.8695   92.2480 H           1 EML       0.0974
     41 H11        -1.3617   33.8935   86.1025 H           1 EML       0.0280
     42 H12        -0.0756   35.6831   85.1794 H           1 EML       0.1036
     43 H13         0.6089   35.1622   83.6838 H           1 EML       0.1036
     44 H14         0.3366   36.1070   80.2800 H           1 EML       0.0281
     45 H15         0.2740   34.8152   81.4711 H           1 EML       0.0281
     46 H16         1.2355   36.2806   81.8063 H           1 EML       0.0281
     47 H17        -3.5817   37.2734   82.4601 H           1 EML       0.0616
     48 H18        -3.5374   35.7764   83.3904 H           1 EML       0.0616
     49 H19        -2.8630   39.3991   84.4936 H           1 EML       0.0288
     50 H20        -2.0394   39.2070   82.9625 H           1 EML       0.0288
     51 H21        -1.0997   39.2258   84.4591 H           1 EML       0.0288
     52 H22        -4.3983   27.7351   87.7536 H           1 EML       0.0384
     53 H23        -5.1623   28.3261   89.2300 H           1 EML       0.0384
     54 H24        -3.5448   27.6049   89.2953 H           1 EML       0.0384
     55 H25        -3.0714   37.6117   86.1406 H           1 EML       0.0288
     56 H26        -1.3273   37.2734   86.1827 H           1 EML       0.0288
     57 H27        -2.4742   35.9385   85.8647 H           1 EML       0.0288
@<TRIPOS>BOND
     1    15     1   1
     2     1    17   1
     3     1    20   2
     4     2    11   1
     5    21     2   1
     6    27     3   1
     7    14     4   1
     8    21     4   1
     9     7     5   2
    10     8     5   1
    11    13     6   2
    12     6    19   1
    13    16     7   1
    14     7    29   1
    15    13     8   1
    16     8    15   1
    17    18     9   1
    18     9    26   1
    19    10    12   1
    20    20    10   1
    21    11    13   1
    22    11    16   2
    23    17    12   2
    24    24    14   2
    25    15    19   2
    26    18    23   1
    27    25    18   1
    28    22    21   2
    29    24    22   1
    30    23    24   1
    31    25    27   1
    32    25    28   1
    33    25    30   1
    34     2    31   1
    35     3    32   1
    36     5    33   1
    37     9    34   1
    38     9    35   1
    39    10    36   1
    40    17    37   1
    41    18    38   1
    42    19    39   1
    43    20    40   1
    44    22    41   1
    45    23    42   1
    46    23    43   1
    47    26    44   1
    48    26    45   1
    49    26    46   1
    50    27    47   1
    51    27    48   1
    52    28    49   1
    53    28    50   1
    54    28    51   1
    55    29    52   1
    56    29    53   1
    57    29    54   1
    58    30    55   1
    59    30    56   1
    60    30    57   1
@<TRIPOS>SUBSTRUCTURE
     1  EML      1

