@<TRIPOS>MOLECULE
3myg_ligand_018
    57    60
SMALL
GAST_HUCK
****
This file was generated by PARSER (from files_GN.cpp)

@<TRIPOS>ATOM
      1 C1        -12.2004   18.7672   78.2817 C.2         1 EML       0.0195
      2 N1        -11.6760   24.1832   80.9833 N.pl3       1 EML      -0.2184
      3 O1         -5.5797   28.3292   76.4742 O.3         1 EML      -0.3892
      4 S1         -9.1078   23.6788   80.3068 S.3         1 EML       0.0206
      5 C2        -13.4107   20.4625   80.7189 C.2         1 EML       0.0730
      6 N2        -11.2364   22.2158   78.6167 N.2         1 EML      -0.3304
      7 C3        -13.7733   21.3631   81.6624 C.2         1 EML       0.0276
      8 N3        -12.5438   20.8144   79.7404 N.pl3       1 EML      -0.2136
      9 C4         -9.1108   29.5944   78.9316 C.3         1 EML      -0.0323
     10 N4        -12.7014   16.6177   78.1361 N.pl3       1 EML      -0.2209
     11 C5        -12.2608   22.9773   80.7596 C.2         1 EML       0.1947
     12 N5        -11.7550   16.8190   77.2799 N.2         1 EML      -0.2182
     13 C6        -11.9800   22.0536   79.7199 C.2         1 EML       0.1969
     14 N6         -8.2508   25.0702   80.0897 N.2         1 EML      -0.3061
     15 C7        -12.0654   20.1325   78.6700 C.2         1 EML       0.0797
     16 N7        -13.1922   22.5792   81.6602 N.2         1 EML      -0.2843
     17 C8        -11.4199   18.1152   77.3235 C.2         1 EML       0.0048
     18 N8         -8.7222   28.1474   78.7003 N.4         1 EML       0.2558
     19 C9        -11.2745   21.0499   77.9633 C.2         1 EML      -0.0220
     20 C10       -13.0299   17.7555   78.7608 C.2         1 EML       0.0562
     21 C11       -10.5151   24.6314   80.5176 C.2         1 EML       0.1479
     22 C12       -10.2164   25.9271   80.4721 C.2         1 EML      -0.0058
     23 C13        -8.3342   27.4697   80.0061 C.3         1 EML       0.0137
     24 C14        -8.9329   26.1611   80.1769 C.2         1 EML       0.0332
     25 C15        -7.8242   27.8904   77.4768 C.3         1 EML       0.0096
     26 C16       -10.6032   29.8229   78.6138 C.3         1 EML      -0.0244
     27 C17        -6.3761   28.4716   77.6496 C.3         1 EML       0.0892
     28 C18        -8.4743   28.4987   76.1776 C.3         1 EML      -0.0168
     29 C19       -14.7310   21.0355   82.7012 C.3         1 EML      -0.0245
     30 C20        -7.7175   26.3533   77.1938 C.3         1 EML      -0.0168
     31 H1        -12.1241   24.7564   81.6212 H           1 EML       0.2327
     32 H2         -4.6813   28.6378   76.7355 H           1 EML       0.2097
     33 H3        -13.8088   19.5583   80.7414 H           1 EML       0.0922
     34 H4         -8.5573   30.2854   78.3046 H           1 EML       0.0812
     35 H5         -8.9104   29.9294   79.9529 H           1 EML       0.0812
     36 H6        -13.1109   15.7602   78.3070 H           1 EML       0.2577
     37 H7        -10.6767   18.5305   76.7545 H           1 EML       0.0660
     38 H8         -9.6042   27.6878   78.4417 H           1 EML       0.2059
     39 H9        -10.7800   20.8820   77.0832 H           1 EML       0.0468
     40 H10       -13.7648   17.8252   79.4572 H           1 EML       0.0974
     41 H11       -10.8636   26.6469   80.7041 H           1 EML       0.0280
     42 H12        -8.6365   28.0401   80.8867 H           1 EML       0.1036
     43 H13        -7.2494   27.3847   80.0921 H           1 EML       0.1036
     44 H14       -10.8472   30.8805   78.7347 H           1 EML       0.0281
     45 H15       -11.2302   29.2351   79.2884 H           1 EML       0.0281
     46 H16       -10.8170   29.5320   77.5808 H           1 EML       0.0281
     47 H17        -6.4162   29.5335   77.8953 H           1 EML       0.0616
     48 H18        -5.8474   27.9643   78.4566 H           1 EML       0.0616
     49 H19        -7.9999   28.1233   75.2645 H           1 EML       0.0288
     50 H20        -8.3760   29.5847   76.1345 H           1 EML       0.0288
     51 H21        -9.5361   28.2481   76.1306 H           1 EML       0.0288
     52 H22       -14.8940   21.8769   83.3763 H           1 EML       0.0384
     53 H23       -14.3660   20.1898   83.2876 H           1 EML       0.0384
     54 H24       -15.6919   20.7670   82.2512 H           1 EML       0.0384
     55 H25        -7.2444   26.1417   76.2292 H           1 EML       0.0288
     56 H26        -8.7125   25.9040   77.1908 H           1 EML       0.0288
     57 H27        -7.1130   25.8599   77.9498 H           1 EML       0.0288
@<TRIPOS>BOND
     1    15     1   1
     2     1    17   1
     3     1    20   2
     4     2    11   1
     5    21     2   1
     6    27     3   1
     7    14     4   1
     8    21     4   1
     9     7     5   2
    10     8     5   1
    11    13     6   2
    12     6    19   1
    13    16     7   1
    14     7    29   1
    15    13     8   1
    16     8    15   1
    17    18     9   1
    18     9    26   1
    19    10    12   1
    20    20    10   1
    21    11    13   1
    22    11    16   2
    23    17    12   2
    24    24    14   2
    25    15    19   2
    26    18    23   1
    27    25    18   1
    28    22    21   2
    29    24    22   1
    30    23    24   1
    31    25    27   1
    32    25    28   1
    33    25    30   1
    34     2    31   1
    35     3    32   1
    36     5    33   1
    37     9    34   1
    38     9    35   1
    39    10    36   1
    40    17    37   1
    41    18    38   1
    42    19    39   1
    43    20    40   1
    44    22    41   1
    45    23    42   1
    46    23    43   1
    47    26    44   1
    48    26    45   1
    49    26    46   1
    50    27    47   1
    51    27    48   1
    52    28    49   1
    53    28    50   1
    54    28    51   1
    55    29    52   1
    56    29    53   1
    57    29    54   1
    58    30    55   1
    59    30    56   1
    60    30    57   1
@<TRIPOS>SUBSTRUCTURE
     1  EML      1

