@<TRIPOS>MOLECULE
3myg_ligand_052
    57    60
SMALL
GAST_HUCK
****
This file was generated by PARSER (from files_GN.cpp)

@<TRIPOS>ATOM
      1 C1         -6.0656   29.4174   77.7249 C.2         1 EML       0.0195
      2 N1         -7.3775   30.3684   83.6311 N.pl3       1 EML      -0.2184
      3 O1         -0.5324   34.3996   82.8597 O.3         1 EML      -0.3892
      4 S1         -6.6128   31.2825   85.9167 S.3         1 EML       0.0206
      5 C2         -7.8872   28.3601   80.0619 C.2         1 EML       0.0730
      6 N2         -5.9404   31.1452   80.8535 N.2         1 EML      -0.3304
      7 C3         -8.5338   28.0360   81.2005 C.2         1 EML       0.0276
      8 N3         -7.0180   29.3947   80.0542 N.pl3       1 EML      -0.2136
      9 C4         -2.3167   32.2439   84.5049 C.3         1 EML      -0.0323
     10 N4         -5.7485   28.1215   75.9655 N.pl3       1 EML      -0.2209
     11 C5         -7.4639   29.8452   82.3824 C.2         1 EML       0.1947
     12 N5         -5.5542   29.3361   75.5582 N.2         1 EML      -0.2182
     13 C6         -6.7987   30.1589   81.1576 C.2         1 EML       0.1969
     14 N6         -5.4965   32.4916   85.9041 N.2         1 EML      -0.3061
     15 C7         -6.2652   29.8908   79.0446 C.2         1 EML       0.0797
     16 N7         -8.3031   28.7751   82.3034 N.2         1 EML      -0.2843
     17 C8         -5.7322   30.1653   76.5987 C.2         1 EML       0.0048
     18 N8         -2.7693   33.5955   85.0288 N.4         1 EML       0.2558
     19 C9         -5.6116   31.0048   79.5674 C.2         1 EML      -0.0220
     20 C10        -6.0607   28.1041   77.2686 C.2         1 EML       0.0562
     21 C11        -6.6252   31.2975   84.2156 C.2         1 EML       0.1479
     22 C12        -5.8324   32.2704   83.7611 C.2         1 EML      -0.0058
     23 C13        -4.1670   33.9406   84.5474 C.3         1 EML       0.0137
     24 C14        -5.1652   32.9003   84.7329 C.2         1 EML       0.0332
     25 C15        -1.7487   34.7508   85.0208 C.3         1 EML       0.0096
     26 C16        -2.3996   31.9622   82.9806 C.3         1 EML      -0.0244
     27 C17        -1.3740   35.2834   83.5941 C.3         1 EML       0.0892
     28 C18        -0.4220   34.3569   85.7731 C.3         1 EML      -0.0168
     29 C19        -9.4714   26.9349   81.2629 C.3         1 EML      -0.0245
     30 C20        -2.3118   35.9665   85.8462 C.3         1 EML      -0.0168
     31 H1         -7.9441   29.8983   84.2625 H           1 EML       0.2327
     32 H2         -0.3796   34.8468   81.9930 H           1 EML       0.2097
     33 H3         -8.0769   27.8551   79.2327 H           1 EML       0.0922
     34 H4         -2.9263   31.4864   85.0043 H           1 EML       0.0812
     35 H5         -1.3065   32.0217   84.8333 H           1 EML       0.0812
     36 H6         -5.6631   27.3331   75.4083 H           1 EML       0.2577
     37 H7         -5.6327   31.1809   76.5555 H           1 EML       0.0660
     38 H8         -2.8684   33.4105   86.0328 H           1 EML       0.2059
     39 H9         -4.9529   31.6066   79.0716 H           1 EML       0.0468
     40 H10        -6.2115   27.2596   77.8218 H           1 EML       0.0974
     41 H11        -5.7391   32.5289   82.8141 H           1 EML       0.0280
     42 H12        -4.1232   34.2410   83.4983 H           1 EML       0.1036
     43 H13        -4.5713   34.7838   85.0960 H           1 EML       0.1036
     44 H14        -1.6166   31.2515   82.6867 H           1 EML       0.0281
     45 H15        -2.2855   32.8701   82.3904 H           1 EML       0.0281
     46 H16        -3.3686   31.5232   82.7324 H           1 EML       0.0281
     47 H17        -2.2721   35.4725   83.0058 H           1 EML       0.0616
     48 H18        -0.8336   36.2288   83.6758 H           1 EML       0.0616
     49 H19         0.2232   35.2229   85.9356 H           1 EML       0.0288
     50 H20         0.1785   33.6415   85.2147 H           1 EML       0.0288
     51 H21        -0.6531   33.9196   86.7474 H           1 EML       0.0288
     52 H22        -9.8954   26.8244   82.2641 H           1 EML       0.0384
     53 H23        -8.9713   26.0001   80.9989 H           1 EML       0.0384
     54 H24       -10.2885   27.1116   80.5614 H           1 EML       0.0384
     55 H25        -1.5411   36.7069   86.0768 H           1 EML       0.0288
     56 H26        -2.7302   35.6189   86.7934 H           1 EML       0.0288
     57 H27        -3.0882   36.5021   85.3021 H           1 EML       0.0288
@<TRIPOS>BOND
     1    15     1   1
     2     1    17   1
     3     1    20   2
     4     2    11   1
     5    21     2   1
     6    27     3   1
     7    14     4   1
     8    21     4   1
     9     7     5   2
    10     8     5   1
    11    13     6   2
    12     6    19   1
    13    16     7   1
    14     7    29   1
    15    13     8   1
    16     8    15   1
    17    18     9   1
    18     9    26   1
    19    10    12   1
    20    20    10   1
    21    11    13   1
    22    11    16   2
    23    17    12   2
    24    24    14   2
    25    15    19   2
    26    18    23   1
    27    25    18   1
    28    22    21   2
    29    24    22   1
    30    23    24   1
    31    25    27   1
    32    25    28   1
    33    25    30   1
    34     2    31   1
    35     3    32   1
    36     5    33   1
    37     9    34   1
    38     9    35   1
    39    10    36   1
    40    17    37   1
    41    18    38   1
    42    19    39   1
    43    20    40   1
    44    22    41   1
    45    23    42   1
    46    23    43   1
    47    26    44   1
    48    26    45   1
    49    26    46   1
    50    27    47   1
    51    27    48   1
    52    28    49   1
    53    28    50   1
    54    28    51   1
    55    29    52   1
    56    29    53   1
    57    29    54   1
    58    30    55   1
    59    30    56   1
    60    30    57   1
@<TRIPOS>SUBSTRUCTURE
     1  EML      1

