@<TRIPOS>MOLECULE
3myg_ligand_013
    57    60
SMALL
GAST_HUCK
****
This file was generated by PARSER (from files_GN.cpp)

@<TRIPOS>ATOM
      1 C1         -8.4058   27.6175   75.4189 C.2         1 EML       0.0195
      2 N1         -5.5205   28.5608   80.6986 N.pl3       1 EML      -0.2184
      3 O1         -5.0346   30.5261   85.1268 O.3         1 EML      -0.3892
      4 S1         -3.8763   30.0608   79.0975 S.3         1 EML       0.0206
      5 C2         -8.2463   26.5182   78.3618 C.2         1 EML       0.0730
      6 N2         -6.4412   29.4373   77.7842 N.2         1 EML      -0.3304
      7 C3         -8.0332   26.2326   79.6664 C.2         1 EML       0.0276
      8 N3         -7.6157   27.5784   77.8030 N.pl3       1 EML      -0.2136
      9 C4         -1.9484   32.9211   84.2968 C.3         1 EML      -0.0323
     10 N4         -9.1310   26.2614   73.8444 N.pl3       1 EML      -0.2209
     11 C5         -6.4180   28.0043   79.8456 C.2         1 EML       0.1947
     12 N5         -9.5066   27.4501   73.4975 N.2         1 EML      -0.2182
     13 C6         -6.7633   28.3625   78.5135 C.2         1 EML       0.1969
     14 N6         -3.1953   31.2956   79.9560 N.2         1 EML      -0.3061
     15 C7         -7.7467   28.1155   76.5662 C.2         1 EML       0.0797
     16 N7         -7.1218   26.9568   80.3437 N.2         1 EML      -0.2843
     17 C8         -9.0689   28.3192   74.4241 C.2         1 EML       0.0048
     18 N8         -3.1241   32.3419   83.5366 N.4         1 EML       0.2558
     19 C9         -7.0304   29.3076   76.5894 C.2         1 EML      -0.0220
     20 C10        -8.4455   26.3035   74.9904 C.2         1 EML       0.0562
     21 C11        -4.6366   29.5498   80.5385 C.2         1 EML       0.1479
     22 C12        -4.1487   30.2242   81.5788 C.2         1 EML      -0.0058
     23 C13        -2.8616   32.3487   82.0479 C.3         1 EML       0.0137
     24 C14        -3.4177   31.2858   81.2223 C.2         1 EML       0.0332
     25 C15        -4.5217   32.7356   84.0553 C.3         1 EML       0.0096
     26 C16        -1.2864   34.2443   83.8064 C.3         1 EML      -0.0244
     27 C17        -4.8263   31.9198   85.3631 C.3         1 EML       0.0892
     28 C18        -5.7008   32.4100   83.0678 C.3         1 EML      -0.0168
     29 C19        -8.7681   25.1847   80.3460 C.3         1 EML      -0.0245
     30 C20        -4.6691   34.2605   84.3971 C.3         1 EML      -0.0168
     31 H1         -5.5526   28.2004   81.5986 H           1 EML       0.2327
     32 H2         -4.1555   30.1491   84.9065 H           1 EML       0.2097
     33 H3         -8.9213   26.0064   77.8542 H           1 EML       0.0922
     34 H4         -1.1687   32.1570   84.2912 H           1 EML       0.0812
     35 H5         -2.1953   33.0579   85.3508 H           1 EML       0.0812
     36 H6         -9.3299   25.4515   73.3534 H           1 EML       0.2577
     37 H7         -9.2220   29.3283   74.3931 H           1 EML       0.0660
     38 H8         -3.0569   31.3522   83.7631 H           1 EML       0.2059
     39 H9         -6.9216   29.9704   75.8104 H           1 EML       0.0468
     40 H10        -8.0001   25.5052   75.4414 H           1 EML       0.0974
     41 H11        -4.3938   30.0187   82.5136 H           1 EML       0.0280
     42 H12        -1.7850   32.2716   81.8552 H           1 EML       0.1036
     43 H13        -3.1787   33.3160   81.6417 H           1 EML       0.1036
     44 H14        -0.4967   34.5340   84.5011 H           1 EML       0.0281
     45 H15        -1.9904   35.0636   83.7488 H           1 EML       0.0281
     46 H16        -0.8319   34.1242   82.8236 H           1 EML       0.0281
     47 H17        -4.0155   32.0109   86.0882 H           1 EML       0.0616
     48 H18        -5.7281   32.2987   85.8572 H           1 EML       0.0616
     49 H19        -6.6568   32.7456   83.4913 H           1 EML       0.0288
     50 H20        -5.7788   31.3345   82.8797 H           1 EML       0.0288
     51 H21        -5.5736   32.9252   82.1106 H           1 EML       0.0288
     52 H22        -8.4878   25.1175   81.4011 H           1 EML       0.0384
     53 H23        -8.5748   24.2143   79.8790 H           1 EML       0.0384
     54 H24        -9.8410   25.3912   80.2928 H           1 EML       0.0384
     55 H25        -5.6856   34.5034   84.7172 H           1 EML       0.0288
     56 H26        -4.4377   34.8692   83.5180 H           1 EML       0.0288
     57 H27        -4.0086   34.5495   85.2172 H           1 EML       0.0288
@<TRIPOS>BOND
     1    15     1   1
     2     1    17   1
     3     1    20   2
     4     2    11   1
     5    21     2   1
     6    27     3   1
     7    14     4   1
     8    21     4   1
     9     7     5   2
    10     8     5   1
    11    13     6   2
    12     6    19   1
    13    16     7   1
    14     7    29   1
    15    13     8   1
    16     8    15   1
    17    18     9   1
    18     9    26   1
    19    10    12   1
    20    20    10   1
    21    11    13   1
    22    11    16   2
    23    17    12   2
    24    24    14   2
    25    15    19   2
    26    18    23   1
    27    25    18   1
    28    22    21   2
    29    24    22   1
    30    23    24   1
    31    25    27   1
    32    25    28   1
    33    25    30   1
    34     2    31   1
    35     3    32   1
    36     5    33   1
    37     9    34   1
    38     9    35   1
    39    10    36   1
    40    17    37   1
    41    18    38   1
    42    19    39   1
    43    20    40   1
    44    22    41   1
    45    23    42   1
    46    23    43   1
    47    26    44   1
    48    26    45   1
    49    26    46   1
    50    27    47   1
    51    27    48   1
    52    28    49   1
    53    28    50   1
    54    28    51   1
    55    29    52   1
    56    29    53   1
    57    29    54   1
    58    30    55   1
    59    30    56   1
    60    30    57   1
@<TRIPOS>SUBSTRUCTURE
     1  EML      1

