@<TRIPOS>MOLECULE
3myg_ligand_034
    57    60
SMALL
GAST_HUCK
****
This file was generated by PARSER (from files_GN.cpp)

@<TRIPOS>ATOM
      1 C1         -2.7654   33.1527   81.5745 C.2         1 EML       0.0195
      2 N1         -5.8772   29.7709   85.6889 N.pl3       1 EML      -0.2184
      3 O1        -11.0334   25.6892   83.8371 O.3         1 EML      -0.3892
      4 S1         -7.6173   27.9219   86.2387 S.3         1 EML       0.0206
      5 C2         -2.9847   32.5399   84.7162 C.2         1 EML       0.0730
      6 N2         -5.0808   30.6411   82.6971 N.2         1 EML      -0.3304
      7 C3         -3.2542   32.1480   85.9789 C.2         1 EML       0.0276
      8 N3         -3.6508   31.9938   83.6727 N.pl3       1 EML      -0.2136
      9 C4         -6.7921   25.6852   82.1882 C.3         1 EML      -0.0323
     10 N4         -2.0523   34.3904   79.8729 N.pl3       1 EML      -0.2209
     11 C5         -4.9591   30.6431   85.1973 C.2         1 EML       0.1947
     12 N5         -1.2957   34.6860   80.8771 N.2         1 EML      -0.2182
     13 C6         -4.6088   31.0484   83.8751 C.2         1 EML       0.1969
     14 N6         -8.4258   27.2770   84.9559 N.2         1 EML      -0.3061
     15 C7         -3.5508   32.2310   82.3358 C.2         1 EML       0.0797
     16 N7         -4.2303   31.2446   86.1732 N.2         1 EML      -0.2843
     17 C8         -1.6887   33.9610   81.9361 C.2         1 EML       0.0048
     18 N8         -8.2906   25.8909   82.1094 N.4         1 EML       0.2558
     19 C9         -4.4569   31.3438   81.7491 C.2         1 EML      -0.0220
     20 C10        -2.9530   33.4679   80.2275 C.2         1 EML       0.0562
     21 C11        -6.8009   28.9615   85.1644 C.2         1 EML       0.1479
     22 C12        -7.2735   28.7978   83.9314 C.2         1 EML      -0.0058
     23 C13        -8.6838   27.2861   82.5625 C.3         1 EML       0.0137
     24 C14        -8.1498   27.7937   83.8234 C.2         1 EML       0.0332
     25 C15        -9.1405   24.6750   82.5273 C.3         1 EML       0.0096
     26 C16        -5.9259   26.7505   81.4690 C.3         1 EML      -0.0244
     27 C17       -10.6804   24.9783   82.6495 C.3         1 EML       0.0892
     28 C18        -8.6748   23.9786   83.8536 C.3         1 EML      -0.0168
     29 C19        -2.5286   32.6717   87.1206 C.3         1 EML      -0.0245
     30 C20        -9.0320   23.5949   81.3883 C.3         1 EML      -0.0168
     31 H1         -5.8403   29.6990   86.6598 H           1 EML       0.2327
     32 H2        -11.9941   25.8821   83.7311 H           1 EML       0.2097
     33 H3         -2.2874   33.2239   84.5730 H           1 EML       0.0922
     34 H4         -6.5172   24.7334   81.7341 H           1 EML       0.0812
     35 H5         -6.4732   25.6413   83.2349 H           1 EML       0.0812
     36 H6         -1.9904   34.7809   78.9883 H           1 EML       0.2577
     37 H7         -1.2286   34.0179   82.8366 H           1 EML       0.0660
     38 H8         -8.4652   25.9456   81.1053 H           1 EML       0.2059
     39 H9         -4.6411   31.2270   80.7492 H           1 EML       0.0468
     40 H10        -3.6670   33.0871   79.5990 H           1 EML       0.0974
     41 H11        -7.0446   29.3748   83.1658 H           1 EML       0.0280
     42 H12        -9.7675   27.4169   82.5955 H           1 EML       0.1036
     43 H13        -8.3822   27.9619   81.7572 H           1 EML       0.1036
     44 H14        -4.9005   26.3830   81.3514 H           1 EML       0.0281
     45 H15        -5.8959   27.6811   82.0485 H           1 EML       0.0281
     46 H16        -6.3384   26.9527   80.4781 H           1 EML       0.0281
     47 H17       -11.0178   25.5494   81.7789 H           1 EML       0.0616
     48 H18       -11.2637   24.0519   82.6759 H           1 EML       0.0616
     49 H19        -9.3290   23.1376   84.0997 H           1 EML       0.0288
     50 H20        -8.6913   24.6711   84.6902 H           1 EML       0.0288
     51 H21        -7.6607   23.5815   83.7646 H           1 EML       0.0288
     52 H22        -2.9181   32.2711   88.0596 H           1 EML       0.0384
     53 H23        -2.6148   33.7585   87.1500 H           1 EML       0.0384
     54 H24        -1.4757   32.3999   87.0418 H           1 EML       0.0384
     55 H25        -9.6900   22.7401   81.5790 H           1 EML       0.0288
     56 H26        -8.0222   23.1877   81.2896 H           1 EML       0.0288
     57 H27        -9.3125   24.0241   80.4239 H           1 EML       0.0288
@<TRIPOS>BOND
     1    15     1   1
     2     1    17   1
     3     1    20   2
     4     2    11   1
     5    21     2   1
     6    27     3   1
     7    14     4   1
     8    21     4   1
     9     7     5   2
    10     8     5   1
    11    13     6   2
    12     6    19   1
    13    16     7   1
    14     7    29   1
    15    13     8   1
    16     8    15   1
    17    18     9   1
    18     9    26   1
    19    10    12   1
    20    20    10   1
    21    11    13   1
    22    11    16   2
    23    17    12   2
    24    24    14   2
    25    15    19   2
    26    18    23   1
    27    25    18   1
    28    22    21   2
    29    24    22   1
    30    23    24   1
    31    25    27   1
    32    25    28   1
    33    25    30   1
    34     2    31   1
    35     3    32   1
    36     5    33   1
    37     9    34   1
    38     9    35   1
    39    10    36   1
    40    17    37   1
    41    18    38   1
    42    19    39   1
    43    20    40   1
    44    22    41   1
    45    23    42   1
    46    23    43   1
    47    26    44   1
    48    26    45   1
    49    26    46   1
    50    27    47   1
    51    27    48   1
    52    28    49   1
    53    28    50   1
    54    28    51   1
    55    29    52   1
    56    29    53   1
    57    29    54   1
    58    30    55   1
    59    30    56   1
    60    30    57   1
@<TRIPOS>SUBSTRUCTURE
     1  EML      1

