@<TRIPOS>MOLECULE
3myg_ligand_008
    57    60
SMALL
GAST_HUCK
****
This file was generated by PARSER (from files_GN.cpp)

@<TRIPOS>ATOM
      1 C1         -4.1075   30.5986   78.7451 C.2         1 EML       0.0195
      2 N1         -7.2661   27.1381   82.4370 N.pl3       1 EML      -0.2184
      3 O1         -7.5202   22.3138   79.3848 O.3         1 EML      -0.3892
      4 S1         -8.1897   25.7447   84.4492 S.3         1 EML       0.0206
      5 C2         -6.4014   28.4728   78.6269 C.2         1 EML       0.0730
      6 N2         -5.1545   29.1125   81.8395 N.2         1 EML      -0.3304
      7 C3         -7.3819   27.5597   78.8114 C.2         1 EML       0.0276
      8 N3         -5.6836   28.9131   79.6869 N.pl3       1 EML      -0.2136
      9 C4        -10.3749   23.3849   79.7839 C.3         1 EML      -0.0323
     10 N4         -3.2720   32.2975   77.6204 N.pl3       1 EML      -0.2209
     11 C5         -6.9783   27.5517   81.1802 C.2         1 EML       0.1947
     12 N5         -3.3516   31.3195   76.7771 N.2         1 EML      -0.2182
     13 C6         -5.9469   28.4914   80.9506 C.2         1 EML       0.1969
     14 N6         -9.3485   24.6392   84.0504 N.2         1 EML      -0.3061
     15 C7         -4.6958   29.8318   79.7701 C.2         1 EML       0.0797
     16 N7         -7.6337   27.1304   80.0637 N.2         1 EML      -0.2843
     17 C8         -3.8447   30.2483   77.4231 C.2         1 EML       0.0048
     18 N8        -10.2675   22.7713   81.1664 N.4         1 EML       0.2558
     19 C9         -4.3829   29.9453   81.1265 C.2         1 EML      -0.0220
     20 C10        -3.7034   31.9225   78.8315 C.2         1 EML       0.0562
     21 C11        -8.1815   26.2533   82.8263 C.2         1 EML       0.1479
     22 C12        -9.1434   25.6346   82.1372 C.2         1 EML      -0.0058
     23 C13       -10.6904   23.7042   82.2875 C.3         1 EML       0.0137
     24 C14        -9.7335   24.6574   82.8295 C.2         1 EML       0.0332
     25 C15        -9.0375   21.8649   81.3740 C.3         1 EML       0.0096
     26 C16       -11.7675   23.9016   79.3517 C.3         1 EML      -0.0244
     27 C17        -7.6830   22.4297   80.7950 C.3         1 EML       0.0892
     28 C18        -9.3578   20.4789   80.7091 C.3         1 EML      -0.0168
     29 C19        -8.1941   27.0543   77.7220 C.3         1 EML      -0.0245
     30 C20        -8.7670   21.5307   82.8901 C.3         1 EML      -0.0168
     31 H1         -6.7023   27.4945   83.1408 H           1 EML       0.2327
     32 H2         -7.7712   23.1882   79.0131 H           1 EML       0.2097
     33 H3         -6.2326   28.8370   77.7207 H           1 EML       0.0922
     34 H4        -10.1229   22.6392   79.0343 H           1 EML       0.0812
     35 H5         -9.6537   24.1886   79.6624 H           1 EML       0.0812
     36 H6         -2.9687   33.1900   77.4020 H           1 EML       0.2577
     37 H7         -3.9907   29.3298   76.9971 H           1 EML       0.0660
     38 H8        -11.0403   22.0982   81.1620 H           1 EML       0.2059
     39 H9         -3.6723   30.5581   81.5334 H           1 EML       0.0468
     40 H10        -3.7683   32.5320   79.6497 H           1 EML       0.0974
     41 H11        -9.3980   25.8574   81.2088 H           1 EML       0.0280
     42 H12       -11.0408   23.0733   83.1040 H           1 EML       0.1036
     43 H13       -11.5755   24.2773   81.9976 H           1 EML       0.1036
     44 H14       -11.7660   24.1004   78.2773 H           1 EML       0.0281
     45 H15       -12.0220   24.8317   79.8574 H           1 EML       0.0281
     46 H16       -12.5255   23.1488   79.5681 H           1 EML       0.0281
     47 H17        -7.5532   23.4761   81.0767 H           1 EML       0.0616
     48 H18        -6.8340   21.8845   81.2125 H           1 EML       0.0616
     49 H19        -8.5717   19.7485   80.9018 H           1 EML       0.0288
     50 H20        -9.4562   20.5448   79.6258 H           1 EML       0.0288
     51 H21       -10.2992   20.0803   81.0972 H           1 EML       0.0288
     52 H22        -8.9112   26.3084   78.0730 H           1 EML       0.0384
     53 H23        -7.5588   26.5868   76.9707 H           1 EML       0.0384
     54 H24        -8.7500   27.8734   77.2660 H           1 EML       0.0384
     55 H25        -8.0401   20.7190   83.0061 H           1 EML       0.0288
     56 H26        -9.6808   21.2217   83.3934 H           1 EML       0.0288
     57 H27        -8.3540   22.3895   83.4174 H           1 EML       0.0288
@<TRIPOS>BOND
     1    15     1   1
     2     1    17   1
     3     1    20   2
     4     2    11   1
     5    21     2   1
     6    27     3   1
     7    14     4   1
     8    21     4   1
     9     7     5   2
    10     8     5   1
    11    13     6   2
    12     6    19   1
    13    16     7   1
    14     7    29   1
    15    13     8   1
    16     8    15   1
    17    18     9   1
    18     9    26   1
    19    10    12   1
    20    20    10   1
    21    11    13   1
    22    11    16   2
    23    17    12   2
    24    24    14   2
    25    15    19   2
    26    18    23   1
    27    25    18   1
    28    22    21   2
    29    24    22   1
    30    23    24   1
    31    25    27   1
    32    25    28   1
    33    25    30   1
    34     2    31   1
    35     3    32   1
    36     5    33   1
    37     9    34   1
    38     9    35   1
    39    10    36   1
    40    17    37   1
    41    18    38   1
    42    19    39   1
    43    20    40   1
    44    22    41   1
    45    23    42   1
    46    23    43   1
    47    26    44   1
    48    26    45   1
    49    26    46   1
    50    27    47   1
    51    27    48   1
    52    28    49   1
    53    28    50   1
    54    28    51   1
    55    29    52   1
    56    29    53   1
    57    29    54   1
    58    30    55   1
    59    30    56   1
    60    30    57   1
@<TRIPOS>SUBSTRUCTURE
     1  EML      1

