@<TRIPOS>MOLECULE
3myg_ligand_040
    57    60
SMALL
GAST_HUCK
****
This file was generated by PARSER (from files_GN.cpp)

@<TRIPOS>ATOM
      1 C1         -4.9745   43.0277   81.1610 C.2         1 EML       0.0195
      2 N1         -0.8041   39.3843   83.3417 N.pl3       1 EML      -0.2184
      3 O1          0.2763   34.7618   90.6325 O.3         1 EML      -0.3892
      4 S1          1.3677   37.9631   83.7254 S.3         1 EML       0.0206
      5 C2         -4.7489   40.5846   83.0122 C.2         1 EML       0.0730
      6 N2         -1.6868   41.7784   81.8091 N.2         1 EML      -0.3304
      7 C3         -4.4367   39.5281   83.7856 C.2         1 EML       0.0276
      8 N3         -3.7636   41.2591   82.3783 N.pl3       1 EML      -0.2136
      9 C4          1.3031   36.6918   88.1115 C.3         1 EML      -0.0323
     10 N4         -6.8207   43.5420   80.0911 N.pl3       1 EML      -0.2209
     11 C5         -2.0900   39.7872   83.2691 C.2         1 EML       0.1947
     12 N5         -6.6530   44.4647   80.9926 N.2         1 EML      -0.2182
     13 C6         -2.4582   40.9140   82.4888 C.2         1 EML       0.1969
     14 N6          1.2309   36.7428   84.8299 N.2         1 EML      -0.3061
     15 C7         -3.8275   42.3508   81.5965 C.2         1 EML       0.0797
     16 N7         -3.1344   39.1574   83.8824 N.2         1 EML      -0.2843
     17 C8         -5.5332   44.1921   81.6795 C.2         1 EML       0.0048
     18 N8          0.1091   35.7974   87.8595 N.4         1 EML       0.2558
     19 C9         -2.5162   42.6777   81.2577 C.2         1 EML      -0.0220
     20 C10        -5.8332   42.6395   80.1475 C.2         1 EML       0.0562
     21 C11        -0.2552   38.3637   84.0169 C.2         1 EML       0.1479
     22 C12        -0.7737   37.5633   84.9542 C.2         1 EML      -0.0058
     23 C13        -0.2042   35.6039   86.3800 C.3         1 EML       0.0137
     24 C14         0.0980   36.6490   85.4067 C.2         1 EML       0.0332
     25 C15        -1.0707   35.8462   88.8422 C.3         1 EML       0.0096
     26 C16         1.1069   38.2332   88.0642 C.3         1 EML      -0.0244
     27 C17        -0.5945   35.8526   90.3440 C.3         1 EML       0.0892
     28 C18        -1.9588   34.5571   88.6891 C.3         1 EML      -0.0168
     29 C19        -5.4369   38.7766   84.5128 C.3         1 EML      -0.0245
     30 C20        -1.9942   37.0869   88.6345 C.3         1 EML      -0.0168
     31 H1         -0.1772   39.8912   82.7934 H           1 EML       0.2327
     32 H2          0.5143   34.8622   91.5770 H           1 EML       0.2097
     33 H3         -5.6949   40.8805   82.9218 H           1 EML       0.0922
     34 H4          2.0818   36.4300   87.3912 H           1 EML       0.0812
     35 H5          1.7475   36.4450   89.0774 H           1 EML       0.0812
     36 H6         -7.5440   43.5165   79.4477 H           1 EML       0.2577
     37 H7         -5.1656   44.7400   82.4602 H           1 EML       0.0660
     38 H8          0.5078   34.8826   88.0961 H           1 EML       0.2059
     39 H9         -2.2244   43.4643   80.6700 H           1 EML       0.0468
     40 H10        -5.7333   41.8223   79.5429 H           1 EML       0.0974
     41 H11        -1.6885   37.6490   85.3149 H           1 EML       0.0280
     42 H12        -1.2420   35.3289   86.2168 H           1 EML       0.1036
     43 H13         0.3513   34.7150   86.0736 H           1 EML       0.1036
     44 H14         2.0364   38.7179   87.7657 H           1 EML       0.0281
     45 H15         0.8314   38.6157   89.0475 H           1 EML       0.0281
     46 H16         0.3346   38.5236   87.3559 H           1 EML       0.0281
     47 H17        -0.0766   36.7778   90.5884 H           1 EML       0.0616
     48 H18        -1.4469   35.7827   91.0269 H           1 EML       0.0616
     49 H19        -2.6755   34.4555   89.5060 H           1 EML       0.0288
     50 H20        -1.3353   33.6605   88.6696 H           1 EML       0.0288
     51 H21        -2.5545   34.5706   87.7764 H           1 EML       0.0288
     52 H22        -4.9836   37.9613   85.0773 H           1 EML       0.0384
     53 H23        -6.1602   38.3514   83.8174 H           1 EML       0.0384
     54 H24        -5.9569   39.4314   85.2126 H           1 EML       0.0384
     55 H25        -2.8512   37.0474   89.3067 H           1 EML       0.0288
     56 H26        -2.3685   37.1291   87.6143 H           1 EML       0.0288
     57 H27        -1.4735   38.0189   88.8443 H           1 EML       0.0288
@<TRIPOS>BOND
     1    15     1   1
     2     1    17   1
     3     1    20   2
     4     2    11   1
     5    21     2   1
     6    27     3   1
     7    14     4   1
     8    21     4   1
     9     7     5   2
    10     8     5   1
    11    13     6   2
    12     6    19   1
    13    16     7   1
    14     7    29   1
    15    13     8   1
    16     8    15   1
    17    18     9   1
    18     9    26   1
    19    10    12   1
    20    20    10   1
    21    11    13   1
    22    11    16   2
    23    17    12   2
    24    24    14   2
    25    15    19   2
    26    18    23   1
    27    25    18   1
    28    22    21   2
    29    24    22   1
    30    23    24   1
    31    25    27   1
    32    25    28   1
    33    25    30   1
    34     2    31   1
    35     3    32   1
    36     5    33   1
    37     9    34   1
    38     9    35   1
    39    10    36   1
    40    17    37   1
    41    18    38   1
    42    19    39   1
    43    20    40   1
    44    22    41   1
    45    23    42   1
    46    23    43   1
    47    26    44   1
    48    26    45   1
    49    26    46   1
    50    27    47   1
    51    27    48   1
    52    28    49   1
    53    28    50   1
    54    28    51   1
    55    29    52   1
    56    29    53   1
    57    29    54   1
    58    30    55   1
    59    30    56   1
    60    30    57   1
@<TRIPOS>SUBSTRUCTURE
     1  EML      1

