@<TRIPOS>MOLECULE
3myg_ligand_049
    57    60
SMALL
GAST_HUCK
****
This file was generated by PARSER (from files_GN.cpp)

@<TRIPOS>ATOM
      1 C1         -5.3210   30.6767   77.5410 C.2         1 EML       0.0195
      2 N1         -6.7628   28.7524   83.1773 N.pl3       1 EML      -0.2184
      3 O1         -0.9086   28.8505   86.3813 O.3         1 EML      -0.3892
      4 S1         -7.0143   29.4924   85.6598 S.3         1 EML       0.0206
      5 C2         -6.9578   28.4204   79.0739 C.2         1 EML       0.0730
      6 N2         -5.3957   30.7742   81.1184 N.2         1 EML      -0.3304
      7 C3         -7.5785   27.5680   79.9196 C.2         1 EML       0.0276
      8 N3         -6.2091   29.4399   79.5582 N.pl3       1 EML      -0.2136
      9 C4         -1.6356   32.2363   85.1255 C.3         1 EML      -0.0323
     10 N4         -5.1208   30.5148   75.3413 N.pl3       1 EML      -0.2209
     11 C5         -6.7011   28.7549   81.8218 C.2         1 EML       0.1947
     12 N5         -4.7260   31.7113   75.6497 N.2         1 EML      -0.2182
     13 C6         -6.0944   29.6524   80.8965 C.2         1 EML       0.1969
     14 N6         -5.9333   30.6160   86.2109 N.2         1 EML      -0.3061
     15 C7         -5.5333   30.4277   78.9211 C.2         1 EML       0.0797
     16 N7         -7.4231   27.7593   81.2423 N.2         1 EML      -0.2843
     17 C8         -4.8345   31.8581   76.9774 C.2         1 EML       0.0048
     18 N8         -2.6757   31.3781   85.8077 N.4         1 EML       0.2558
     19 C9         -5.0357   31.2588   79.9285 C.2         1 EML      -0.0220
     20 C10        -5.4804   29.8355   76.4415 C.2         1 EML       0.0562
     21 C11        -6.2607   29.5243   84.1327 C.2         1 EML       0.1479
     22 C12        -5.2018   30.3370   84.1588 C.2         1 EML      -0.0058
     23 C13        -4.0604   31.9708   85.6280 C.3         1 EML       0.0137
     24 C14        -5.0582   30.9617   85.3386 C.2         1 EML       0.0332
     25 C15        -2.3372   30.7478   87.1708 C.3         1 EML       0.0096
     26 C16        -1.4291   33.6788   85.6543 C.3         1 EML      -0.0244
     27 C17        -0.9243   30.0442   87.1709 C.3         1 EML       0.0892
     28 C18        -3.3680   29.6009   87.4853 C.3         1 EML      -0.0168
     29 C19        -8.4420   26.5037   79.4460 C.3         1 EML      -0.0245
     30 C20        -2.3450   31.7476   88.3837 C.3         1 EML      -0.0168
     31 H1         -7.3660   28.0770   83.5276 H           1 EML       0.2327
     32 H2         -1.1300   29.1387   85.4655 H           1 EML       0.2097
     33 H3         -7.1013   28.3334   78.1009 H           1 EML       0.0922
     34 H4         -1.9061   32.3119   84.0649 H           1 EML       0.0812
     35 H5         -0.6710   31.7341   85.1316 H           1 EML       0.0812
     36 H6         -5.1241   30.1653   74.4324 H           1 EML       0.2577
     37 H7         -4.5833   32.7168   77.4726 H           1 EML       0.0660
     38 H8         -2.6899   30.5660   85.1915 H           1 EML       0.2059
     39 H9         -4.4721   32.1038   79.7981 H           1 EML       0.0468
     40 H10        -5.7711   28.8559   76.4446 H           1 EML       0.0974
     41 H11        -4.5661   30.4674   83.4060 H           1 EML       0.0280
     42 H12        -4.1133   32.6926   84.8028 H           1 EML       0.1036
     43 H13        -4.3505   32.5402   86.5091 H           1 EML       0.1036
     44 H14        -0.9571   34.2963   84.8840 H           1 EML       0.0281
     45 H15        -0.7647   33.6739   86.5227 H           1 EML       0.0281
     46 H16        -2.3846   34.1355   85.9291 H           1 EML       0.0281
     47 H17        -0.1482   30.7261   86.8076 H           1 EML       0.0616
     48 H18        -0.6280   29.7677   88.1898 H           1 EML       0.0616
     49 H19        -3.0543   29.0001   88.3467 H           1 EML       0.0288
     50 H20        -3.4720   28.9354   86.6237 H           1 EML       0.0288
     51 H21        -4.3511   30.0142   87.7131 H           1 EML       0.0288
     52 H22        -8.8245   25.9080   80.2749 H           1 EML       0.0384
     53 H23        -7.8939   25.8434   78.7759 H           1 EML       0.0384
     54 H24        -9.2901   26.9270   78.9102 H           1 EML       0.0384
     55 H25        -2.3578   31.1991   89.3349 H           1 EML       0.0288
     56 H26        -3.2211   32.4073   88.3709 H           1 EML       0.0288
     57 H27        -1.4428   32.3678   88.3931 H           1 EML       0.0288
@<TRIPOS>BOND
     1    15     1   1
     2     1    17   1
     3     1    20   2
     4     2    11   1
     5    21     2   1
     6    27     3   1
     7    14     4   1
     8    21     4   1
     9     7     5   2
    10     8     5   1
    11    13     6   2
    12     6    19   1
    13    16     7   1
    14     7    29   1
    15    13     8   1
    16     8    15   1
    17    18     9   1
    18     9    26   1
    19    10    12   1
    20    20    10   1
    21    11    13   1
    22    11    16   2
    23    17    12   2
    24    24    14   2
    25    15    19   2
    26    18    23   1
    27    25    18   1
    28    22    21   2
    29    24    22   1
    30    23    24   1
    31    25    27   1
    32    25    28   1
    33    25    30   1
    34     2    31   1
    35     3    32   1
    36     5    33   1
    37     9    34   1
    38     9    35   1
    39    10    36   1
    40    17    37   1
    41    18    38   1
    42    19    39   1
    43    20    40   1
    44    22    41   1
    45    23    42   1
    46    23    43   1
    47    26    44   1
    48    26    45   1
    49    26    46   1
    50    27    47   1
    51    27    48   1
    52    28    49   1
    53    28    50   1
    54    28    51   1
    55    29    52   1
    56    29    53   1
    57    29    54   1
    58    30    55   1
    59    30    56   1
    60    30    57   1
@<TRIPOS>SUBSTRUCTURE
     1  EML      1

