@<TRIPOS>MOLECULE
3myg_ligand_010
    57    60
SMALL
GAST_HUCK
****
This file was generated by PARSER (from files_GN.cpp)

@<TRIPOS>ATOM
      1 C1         -2.7927   32.3504   85.5535 C.2         1 EML       0.0195
      2 N1         -4.8345   37.6356   83.7917 N.pl3       1 EML      -0.2184
      3 O1         -5.9624   45.7598   80.5383 O.3         1 EML      -0.3892
      4 S1         -6.3382   39.6475   83.0831 S.3         1 EML       0.0206
      5 C2         -1.8415   35.2439   85.3392 C.2         1 EML       0.0730
      6 N2         -5.0916   34.7088   84.1636 N.2         1 EML      -0.3304
      7 C3         -1.6144   36.5654   85.1700 C.2         1 EML       0.0276
      8 N3         -3.0339   34.7257   84.9824 N.pl3       1 EML      -0.2136
      9 C4         -3.6145   44.6312   84.1939 C.3         1 EML      -0.0323
     10 N4         -1.7751   30.9633   86.9156 N.pl3       1 EML      -0.2209
     11 C5         -3.8313   36.8669   84.2772 C.2         1 EML       0.1947
     12 N5         -1.3144   30.7133   85.7285 N.2         1 EML      -0.2182
     13 C6         -4.0246   35.4766   84.4490 C.2         1 EML       0.1969
     14 N6         -5.5942   41.1216   83.0700 N.2         1 EML      -0.3061
     15 C7         -3.4838   33.4607   85.0524 C.2         1 EML       0.0797
     16 N7         -2.6094   37.3336   84.6637 N.2         1 EML      -0.2843
     17 C8         -1.9166   31.5341   84.8529 C.2         1 EML       0.0048
     18 N8         -4.1915   43.6399   83.1961 N.4         1 EML       0.2558
     19 C9         -4.7733   33.4575   84.5305 C.2         1 EML      -0.0220
     20 C10        -2.6731   31.9587   86.8776 C.2         1 EML       0.0562
     21 C11        -4.8664   38.9496   83.5723 C.2         1 EML       0.1479
     22 C12        -3.9177   39.8834   83.6794 C.2         1 EML      -0.0058
     23 C13        -3.5017   42.2908   83.3535 C.3         1 EML       0.0137
     24 C14        -4.3555   41.1107   83.3817 C.2         1 EML       0.0332
     25 C15        -4.4100   44.1633   81.7664 C.3         1 EML       0.0096
     26 C16        -3.9933   44.3115   85.6662 C.3         1 EML      -0.0244
     27 C17        -5.2721   45.4884   81.7631 C.3         1 EML       0.0892
     28 C18        -5.1962   43.1239   80.8994 C.3         1 EML      -0.0168
     29 C19        -0.3447   37.1736   85.5149 C.3         1 EML      -0.0245
     30 C20        -3.0688   44.4844   81.0267 C.3         1 EML      -0.0168
     31 H1         -5.6617   37.1645   83.5929 H           1 EML       0.2327
     32 H2         -5.9675   46.7497   80.4619 H           1 EML       0.2097
     33 H3         -1.1305   34.6620   85.7148 H           1 EML       0.0922
     34 H4         -3.9775   45.6441   84.0396 H           1 EML       0.0812
     35 H5         -2.5219   44.6832   84.1062 H           1 EML       0.0812
     36 H6         -1.4863   30.5169   87.7244 H           1 EML       0.2577
     37 H7         -1.7319   31.5674   83.8469 H           1 EML       0.0660
     38 H8         -5.1361   43.4876   83.5431 H           1 EML       0.2059
     39 H9         -5.3882   32.6446   84.4450 H           1 EML       0.0468
     40 H10        -3.1499   32.3732   87.6809 H           1 EML       0.0974
     41 H11        -2.9912   39.7075   83.9838 H           1 EML       0.0280
     42 H12        -2.9198   42.2416   84.2754 H           1 EML       0.1036
     43 H13        -2.7696   42.1464   82.5648 H           1 EML       0.1036
     44 H14        -3.5995   45.0881   86.3311 H           1 EML       0.0281
     45 H15        -3.5826   43.3554   85.9961 H           1 EML       0.0281
     46 H16        -5.0814   44.2781   85.7730 H           1 EML       0.0281
     47 H17        -6.0187   45.4456   82.5586 H           1 EML       0.0616
     48 H18        -4.6426   46.3659   81.9442 H           1 EML       0.0616
     49 H19        -5.3505   43.4762   79.8793 H           1 EML       0.0288
     50 H20        -6.1800   42.9321   81.3279 H           1 EML       0.0288
     51 H21        -4.6581   42.1809   80.8140 H           1 EML       0.0288
     52 H22        -0.3394   38.2440   85.2984 H           1 EML       0.0384
     53 H23         0.4571   36.7071   84.9417 H           1 EML       0.0384
     54 H24        -0.1458   37.0387   86.5782 H           1 EML       0.0384
     55 H25        -3.2553   44.9697   80.0649 H           1 EML       0.0288
     56 H26        -2.4920   43.5781   80.8185 H           1 EML       0.0288
     57 H27        -2.4425   45.1527   81.6269 H           1 EML       0.0288
@<TRIPOS>BOND
     1    15     1   1
     2     1    17   1
     3     1    20   2
     4     2    11   1
     5    21     2   1
     6    27     3   1
     7    14     4   1
     8    21     4   1
     9     7     5   2
    10     8     5   1
    11    13     6   2
    12     6    19   1
    13    16     7   1
    14     7    29   1
    15    13     8   1
    16     8    15   1
    17    18     9   1
    18     9    26   1
    19    10    12   1
    20    20    10   1
    21    11    13   1
    22    11    16   2
    23    17    12   2
    24    24    14   2
    25    15    19   2
    26    18    23   1
    27    25    18   1
    28    22    21   2
    29    24    22   1
    30    23    24   1
    31    25    27   1
    32    25    28   1
    33    25    30   1
    34     2    31   1
    35     3    32   1
    36     5    33   1
    37     9    34   1
    38     9    35   1
    39    10    36   1
    40    17    37   1
    41    18    38   1
    42    19    39   1
    43    20    40   1
    44    22    41   1
    45    23    42   1
    46    23    43   1
    47    26    44   1
    48    26    45   1
    49    26    46   1
    50    27    47   1
    51    27    48   1
    52    28    49   1
    53    28    50   1
    54    28    51   1
    55    29    52   1
    56    29    53   1
    57    29    54   1
    58    30    55   1
    59    30    56   1
    60    30    57   1
@<TRIPOS>SUBSTRUCTURE
     1  EML      1

