@<TRIPOS>MOLECULE
3myg_ligand_046
    57    60
SMALL
GAST_HUCK
****
This file was generated by PARSER (from files_GN.cpp)

@<TRIPOS>ATOM
      1 C1         -7.5740   26.0890   89.1741 C.2         1 EML       0.0195
      2 N1         -3.5756   29.6098   86.4571 N.pl3       1 EML      -0.2184
      3 O1         -4.1254   33.5975   79.3631 O.3         1 EML      -0.3892
      4 S1         -1.4107   30.8864   85.7073 S.3         1 EML       0.0206
      5 C2         -7.4010   28.8904   87.8728 C.2         1 EML       0.0730
      6 N2         -4.4043   27.0737   87.8193 N.2         1 EML      -0.3304
      7 C3         -7.0952   30.0758   87.2989 C.2         1 EML       0.0276
      8 N3         -6.4432   27.9460   87.9793 N.pl3       1 EML      -0.2136
      9 C4         -1.4363   34.8843   82.7506 C.3         1 EML      -0.0323
     10 N4         -8.9877   25.2981   90.6553 N.pl3       1 EML      -0.2209
     11 C5         -4.8373   29.3656   86.8972 C.2         1 EML       0.1947
     12 N5         -9.4748   24.9938   89.4938 N.2         1 EML      -0.2182
     13 C6         -5.1754   28.1386   87.5334 C.2         1 EML       0.1969
     14 N6         -1.6515   32.2905   84.8660 N.2         1 EML      -0.3061
     15 C7         -6.4796   26.7292   88.5600 C.2         1 EML       0.0797
     16 N7         -5.8514   30.2742   86.8304 N.2         1 EML      -0.2843
     17 C8         -8.6424   25.4633   88.5456 C.2         1 EML       0.0048
     18 N8         -2.7599   34.1494   82.6019 N.4         1 EML       0.2558
     19 C9         -5.1937   26.1975   88.4606 C.2         1 EML      -0.0220
     20 C10        -7.8289   25.9620   90.5303 C.2         1 EML       0.0562
     21 C11        -3.0938   30.6976   85.8476 C.2         1 EML       0.1479
     22 C12        -3.7176   31.7080   85.2323 C.2         1 EML      -0.0058
     23 C13        -3.3114   33.8224   83.9819 C.3         1 EML       0.0137
     24 C14        -2.8793   32.5981   84.6644 C.2         1 EML       0.0332
     25 C15        -2.9166   33.0679   81.5109 C.3         1 EML       0.0096
     26 C16        -0.9139   35.7892   81.6078 C.3         1 EML      -0.0244
     27 C17        -2.8810   33.6871   80.0592 C.3         1 EML       0.0892
     28 C18        -4.2877   32.2969   81.5728 C.3         1 EML      -0.0168
     29 C19        -8.0543   31.1592   87.2137 C.3         1 EML      -0.0245
     30 C20        -1.7946   31.9763   81.5906 C.3         1 EML      -0.0168
     31 H1         -2.9335   28.9156   86.6425 H           1 EML       0.2327
     32 H2         -3.9299   34.0053   78.4901 H           1 EML       0.2097
     33 H3         -8.3088   28.7267   88.2441 H           1 EML       0.0922
     34 H4         -0.6380   34.1854   83.0111 H           1 EML       0.0812
     35 H5         -1.5187   35.5798   83.5939 H           1 EML       0.0812
     36 H6         -9.4048   25.0813   91.5000 H           1 EML       0.2577
     37 H7         -8.7729   25.3490   87.5357 H           1 EML       0.0660
     38 H8         -3.3896   34.8850   82.2852 H           1 EML       0.2059
     39 H9         -4.8986   25.2768   88.7990 H           1 EML       0.0468
     40 H10        -7.2616   26.3316   91.2919 H           1 EML       0.0974
     41 H11        -4.7094   31.7863   85.1588 H           1 EML       0.0280
     42 H12        -4.4010   33.8318   83.9015 H           1 EML       0.1036
     43 H13        -3.1033   34.6365   84.6819 H           1 EML       0.1036
     44 H14        -0.1102   36.4327   81.9907 H           1 EML       0.0281
     45 H15        -1.7096   36.4308   81.2284 H           1 EML       0.0281
     46 H16        -0.4908   35.1999   80.7934 H           1 EML       0.0281
     47 H17        -2.5948   34.7431   80.0875 H           1 EML       0.0616
     48 H18        -2.1287   33.1759   79.4389 H           1 EML       0.0616
     49 H19        -4.4112   31.6170   80.7240 H           1 EML       0.0288
     50 H20        -5.1246   32.9986   81.5639 H           1 EML       0.0288
     51 H21        -4.3643   31.6883   82.4723 H           1 EML       0.0288
     52 H22        -7.6195   32.0353   86.7243 H           1 EML       0.0384
     53 H23        -8.3735   31.4559   88.2149 H           1 EML       0.0384
     54 H24        -8.9267   30.8448   86.6387 H           1 EML       0.0384
     55 H25        -1.8950   31.2754   80.7599 H           1 EML       0.0288
     56 H26        -1.8676   31.4085   82.5172 H           1 EML       0.0288
     57 H27        -0.7986   32.4191   81.5267 H           1 EML       0.0288
@<TRIPOS>BOND
     1    15     1   1
     2     1    17   1
     3     1    20   2
     4     2    11   1
     5    21     2   1
     6    27     3   1
     7    14     4   1
     8    21     4   1
     9     7     5   2
    10     8     5   1
    11    13     6   2
    12     6    19   1
    13    16     7   1
    14     7    29   1
    15    13     8   1
    16     8    15   1
    17    18     9   1
    18     9    26   1
    19    10    12   1
    20    20    10   1
    21    11    13   1
    22    11    16   2
    23    17    12   2
    24    24    14   2
    25    15    19   2
    26    18    23   1
    27    25    18   1
    28    22    21   2
    29    24    22   1
    30    23    24   1
    31    25    27   1
    32    25    28   1
    33    25    30   1
    34     2    31   1
    35     3    32   1
    36     5    33   1
    37     9    34   1
    38     9    35   1
    39    10    36   1
    40    17    37   1
    41    18    38   1
    42    19    39   1
    43    20    40   1
    44    22    41   1
    45    23    42   1
    46    23    43   1
    47    26    44   1
    48    26    45   1
    49    26    46   1
    50    27    47   1
    51    27    48   1
    52    28    49   1
    53    28    50   1
    54    28    51   1
    55    29    52   1
    56    29    53   1
    57    29    54   1
    58    30    55   1
    59    30    56   1
    60    30    57   1
@<TRIPOS>SUBSTRUCTURE
     1  EML      1

