@<TRIPOS>MOLECULE
3myg_ligand_038
    57    60
SMALL
GAST_HUCK
****
This file was generated by PARSER (from files_GN.cpp)

@<TRIPOS>ATOM
      1 C1         -6.3247   31.1401   84.0688 C.2         1 EML       0.0195
      2 N1         -2.7126   35.9092   83.9896 N.pl3       1 EML      -0.2184
      3 O1          1.4111   40.0602   78.1816 O.3         1 EML      -0.3892
      4 S1         -1.2848   37.9823   84.6843 S.3         1 EML       0.0206
      5 C2         -3.6536   32.1261   82.6671 C.2         1 EML       0.0730
      6 N2         -5.1254   34.4330   84.8520 N.2         1 EML      -0.3304
      7 C3         -2.5187   32.7277   82.2465 C.2         1 EML       0.0276
      8 N3         -4.4647   32.7509   83.5562 N.pl3       1 EML      -0.2136
      9 C4          0.8608   40.0217   81.3722 C.3         1 EML      -0.0323
     10 N4         -7.9362   29.6350   84.2028 N.pl3       1 EML      -0.2209
     11 C5         -3.0251   34.6742   83.5442 C.2         1 EML       0.1947
     12 N5         -6.8909   29.0040   83.7752 N.2         1 EML      -0.2182
     13 C6         -4.1885   34.0052   83.9911 C.2         1 EML       0.1969
     14 N6          0.0455   38.2635   83.7532 N.2         1 EML      -0.3061
     15 C7         -5.6148   32.3622   84.1519 C.2         1 EML       0.0797
     16 N7         -2.2408   33.9618   82.6898 N.2         1 EML      -0.2843
     17 C8         -5.8794   29.8795   83.6766 C.2         1 EML       0.0048
     18 N8          1.3880   38.7063   80.8315 N.4         1 EML       0.2558
     19 C9         -6.0135   33.4407   84.9508 C.2         1 EML      -0.0220
     20 C10        -7.6571   30.9303   84.4095 C.2         1 EML       0.0562
     21 C11        -1.6454   36.6576   83.6840 C.2         1 EML       0.1479
     22 C12        -0.7514   36.5513   82.6949 C.2         1 EML      -0.0058
     23 C13         1.3779   37.5967   81.8753 C.3         1 EML       0.0137
     24 C14         0.2101   37.4848   82.7564 C.2         1 EML       0.0332
     25 C15         2.6321   38.7535   79.9177 C.3         1 EML       0.0096
     26 C16         1.6552   40.7289   82.4958 C.3         1 EML      -0.0244
     27 C17         2.6260   39.9729   78.9229 C.3         1 EML       0.0892
     28 C18         2.6633   37.4700   79.0128 C.3         1 EML      -0.0168
     29 C19        -1.5713   32.0849   81.3636 C.3         1 EML      -0.0245
     30 C20         3.9964   38.8008   80.6909 C.3         1 EML      -0.0168
     31 H1         -3.3171   36.2863   84.6486 H           1 EML       0.2327
     32 H2          1.4464   40.9313   77.7341 H           1 EML       0.2097
     33 H3         -3.8887   31.2325   82.3055 H           1 EML       0.0922
     34 H4         -0.1611   39.8642   81.7294 H           1 EML       0.0812
     35 H5          0.7293   40.7473   80.5699 H           1 EML       0.0812
     36 H6         -8.8015   29.2247   84.3601 H           1 EML       0.2577
     37 H7         -4.9353   29.6195   83.3934 H           1 EML       0.0660
     38 H8          0.6425   38.4261   80.1885 H           1 EML       0.2059
     39 H9         -6.8370   33.4748   85.5538 H           1 EML       0.0468
     40 H10        -8.3229   31.6279   84.7428 H           1 EML       0.0974
     41 H11        -0.7762   35.8659   81.9830 H           1 EML       0.0280
     42 H12         2.2581   37.6853   82.5181 H           1 EML       0.1036
     43 H13         1.4793   36.6389   81.3677 H           1 EML       0.1036
     44 H14         1.0266   41.4944   82.9537 H           1 EML       0.0281
     45 H15         2.5432   41.2164   82.0975 H           1 EML       0.0281
     46 H16         1.9528   40.0242   83.2674 H           1 EML       0.0281
     47 H17         2.7755   40.9077   79.4663 H           1 EML       0.0616
     48 H18         3.4412   39.9004   78.2024 H           1 EML       0.0616
     49 H19         3.4816   37.5177   78.2897 H           1 EML       0.0288
     50 H20         1.7298   37.3731   78.4583 H           1 EML       0.0288
     51 H21         2.8091   36.5584   79.5913 H           1 EML       0.0288
     52 H22        -0.7260   32.7411   81.1297 H           1 EML       0.0384
     53 H23        -2.0541   31.7988   80.4247 H           1 EML       0.0384
     54 H24        -1.1795   31.1925   81.8549 H           1 EML       0.0384
     55 H25         4.8352   38.9316   80.0050 H           1 EML       0.0288
     56 H26         4.1818   37.8730   81.2370 H           1 EML       0.0288
     57 H27         4.0165   39.6222   81.4026 H           1 EML       0.0288
@<TRIPOS>BOND
     1    15     1   1
     2     1    17   1
     3     1    20   2
     4     2    11   1
     5    21     2   1
     6    27     3   1
     7    14     4   1
     8    21     4   1
     9     7     5   2
    10     8     5   1
    11    13     6   2
    12     6    19   1
    13    16     7   1
    14     7    29   1
    15    13     8   1
    16     8    15   1
    17    18     9   1
    18     9    26   1
    19    10    12   1
    20    20    10   1
    21    11    13   1
    22    11    16   2
    23    17    12   2
    24    24    14   2
    25    15    19   2
    26    18    23   1
    27    25    18   1
    28    22    21   2
    29    24    22   1
    30    23    24   1
    31    25    27   1
    32    25    28   1
    33    25    30   1
    34     2    31   1
    35     3    32   1
    36     5    33   1
    37     9    34   1
    38     9    35   1
    39    10    36   1
    40    17    37   1
    41    18    38   1
    42    19    39   1
    43    20    40   1
    44    22    41   1
    45    23    42   1
    46    23    43   1
    47    26    44   1
    48    26    45   1
    49    26    46   1
    50    27    47   1
    51    27    48   1
    52    28    49   1
    53    28    50   1
    54    28    51   1
    55    29    52   1
    56    29    53   1
    57    29    54   1
    58    30    55   1
    59    30    56   1
    60    30    57   1
@<TRIPOS>SUBSTRUCTURE
     1  EML      1

