@<TRIPOS>MOLECULE
3myg_ligand_076
    57    60
SMALL
GAST_HUCK
****
This file was generated by PARSER (from files_GN.cpp)

@<TRIPOS>ATOM
      1 C1        -10.9984   23.3656   80.2304 C.2         1 EML       0.0195
      2 N1         -7.5802   27.1330   83.5112 N.pl3       1 EML      -0.2184
      3 O1         -1.5450   31.8030   79.2134 O.3         1 EML      -0.3892
      4 S1         -5.9162   26.9066   81.3717 S.3         1 EML       0.0206
      5 C2        -10.2791   24.0437   83.2219 C.2         1 EML       0.0730
      6 N2         -8.9331   26.2451   80.8535 N.2         1 EML      -0.3304
      7 C3         -9.8411   24.5177   84.4086 C.2         1 EML       0.0276
      8 N3         -9.8693   24.6420   82.0762 N.pl3       1 EML      -0.2136
      9 C4         -5.2531   30.8967   79.5431 C.3         1 EML      -0.0323
     10 N4        -11.9272   21.3967   79.8621 N.pl3       1 EML      -0.2209
     11 C5         -8.4983   26.1661   83.3133 C.2         1 EML       0.1947
     12 N5        -12.2972   22.1643   78.8841 N.2         1 EML      -0.2182
     13 C6         -9.0399   25.7209   82.0845 C.2         1 EML       0.1969
     14 N6         -4.9524   28.2436   81.2151 N.2         1 EML      -0.3061
     15 C7        -10.2293   24.4157   80.7917 C.2         1 EML       0.0797
     16 N7         -8.9730   25.5440   84.4298 N.2         1 EML      -0.2843
     17 C8        -11.7495   23.3821   79.0680 C.2         1 EML       0.0048
     18 N8         -4.1881   31.1020   80.6022 N.4         1 EML       0.2558
     19 C9         -9.6617   25.4606   80.0543 C.2         1 EML      -0.0220
     20 C10       -11.1192   22.0588   80.6990 C.2         1 EML       0.0562
     21 C11        -6.7880   27.7094   82.5983 C.2         1 EML       0.1479
     22 C12        -6.2586   28.9083   82.8171 C.2         1 EML      -0.0058
     23 C13        -4.5590   30.5100   81.9554 C.3         1 EML       0.0137
     24 C14        -5.2586   29.2274   81.9897 C.2         1 EML       0.0332
     25 C15        -3.4537   32.4591   80.6636 C.3         1 EML       0.0096
     26 C16        -6.7344   31.0522   80.0028 C.3         1 EML      -0.0244
     27 C17        -1.9075   32.1752   80.5514 C.3         1 EML       0.0892
     28 C18        -3.6858   33.2741   81.9838 C.3         1 EML      -0.0168
     29 C19       -10.2842   23.9231   85.6616 C.3         1 EML      -0.0245
     30 C20        -3.7817   33.4337   79.4681 C.3         1 EML      -0.0168
     31 H1         -7.4378   27.4227   84.4328 H           1 EML       0.2327
     32 H2         -0.5890   32.0810   79.1496 H           1 EML       0.2097
     33 H3        -10.9370   23.2997   83.2004 H           1 EML       0.0922
     34 H4         -5.1331   29.8889   79.1133 H           1 EML       0.0812
     35 H5         -5.0812   31.5613   78.6898 H           1 EML       0.0812
     36 H6        -12.1758   20.4639   79.9621 H           1 EML       0.2577
     37 H7        -11.8746   24.1645   78.4355 H           1 EML       0.0660
     38 H8         -3.4711   30.4623   80.2753 H           1 EML       0.2059
     39 H9         -9.7530   25.5956   79.0361 H           1 EML       0.0468
     40 H10       -10.6618   21.6476   81.5101 H           1 EML       0.0974
     41 H11        -6.5084   29.4666   83.5986 H           1 EML       0.0280
     42 H12        -5.1850   31.2312   82.5094 H           1 EML       0.1036
     43 H13        -3.6344   30.3835   82.5386 H           1 EML       0.1036
     44 H14        -7.3763   30.8545   79.1312 H           1 EML       0.0281
     45 H15        -6.8924   32.0814   80.3582 H           1 EML       0.0281
     46 H16        -6.9614   30.3339   80.8024 H           1 EML       0.0281
     47 H17        -1.3321   33.0745   80.8303 H           1 EML       0.0616
     48 H18        -1.5954   31.3677   81.2322 H           1 EML       0.0616
     49 H19        -3.2198   34.2564   81.9408 H           1 EML       0.0288
     50 H20        -3.2510   32.7586   82.8453 H           1 EML       0.0288
     51 H21        -4.7524   33.3969   82.1635 H           1 EML       0.0288
     52 H22        -9.8337   24.4207   86.5267 H           1 EML       0.0384
     53 H23       -10.0043   22.8648   85.6969 H           1 EML       0.0384
     54 H24       -11.3722   24.0106   85.7437 H           1 EML       0.0384
     55 H25        -3.1781   34.3413   79.5043 H           1 EML       0.0288
     56 H26        -4.8292   33.7402   79.5108 H           1 EML       0.0288
     57 H27        -3.6001   32.9384   78.5150 H           1 EML       0.0288
@<TRIPOS>BOND
     1    15     1   1
     2     1    17   1
     3     1    20   2
     4     2    11   1
     5    21     2   1
     6    27     3   1
     7    14     4   1
     8    21     4   1
     9     7     5   2
    10     8     5   1
    11    13     6   2
    12     6    19   1
    13    16     7   1
    14     7    29   1
    15    13     8   1
    16     8    15   1
    17    18     9   1
    18     9    26   1
    19    10    12   1
    20    20    10   1
    21    11    13   1
    22    11    16   2
    23    17    12   2
    24    24    14   2
    25    15    19   2
    26    18    23   1
    27    25    18   1
    28    22    21   2
    29    24    22   1
    30    23    24   1
    31    25    27   1
    32    25    28   1
    33    25    30   1
    34     2    31   1
    35     3    32   1
    36     5    33   1
    37     9    34   1
    38     9    35   1
    39    10    36   1
    40    17    37   1
    41    18    38   1
    42    19    39   1
    43    20    40   1
    44    22    41   1
    45    23    42   1
    46    23    43   1
    47    26    44   1
    48    26    45   1
    49    26    46   1
    50    27    47   1
    51    27    48   1
    52    28    49   1
    53    28    50   1
    54    28    51   1
    55    29    52   1
    56    29    53   1
    57    29    54   1
    58    30    55   1
    59    30    56   1
    60    30    57   1
@<TRIPOS>SUBSTRUCTURE
     1  EML      1

