@<TRIPOS>MOLECULE
3myg_ligand_069
    57    60
SMALL
GAST_HUCK
****
This file was generated by PARSER (from files_GN.cpp)

@<TRIPOS>ATOM
      1 C1         -7.0608   30.4038   85.4855 C.2         1 EML       0.0195
      2 N1         -4.2415   32.2275   80.3719 N.pl3       1 EML      -0.2184
      3 O1         -7.7499   27.7740   73.5845 O.3         1 EML      -0.3892
      4 S1         -3.1034   30.8318   78.4341 S.3         1 EML       0.0206
      5 C2         -5.4743   32.8242   84.2554 C.2         1 EML       0.0730
      6 N2         -5.9836   30.1385   82.0770 N.2         1 EML      -0.3304
      7 C3         -4.7487   33.7247   83.5570 C.2         1 EML       0.0276
      8 N3         -5.8705   31.6706   83.6678 N.pl3       1 EML      -0.2136
      9 C4         -6.8120   26.4002   76.9253 C.3         1 EML      -0.0323
     10 N4         -8.0312   30.6455   87.4518 N.pl3       1 EML      -0.2209
     11 C5         -4.7715   32.3129   81.6190 C.2         1 EML       0.1947
     12 N5         -7.6162   29.4190   87.4074 N.2         1 EML      -0.2182
     13 C6         -5.5462   31.3734   82.3785 C.2         1 EML       0.1969
     14 N6         -4.0060   29.5285   77.9626 N.2         1 EML      -0.3061
     15 C7         -6.5371   30.6111   84.1858 C.2         1 EML       0.0797
     16 N7         -4.4196   33.4414   82.2866 N.2         1 EML      -0.2843
     17 C8         -7.0237   29.2195   86.2198 C.2         1 EML       0.0048
     18 N8         -6.2413   27.8015   76.8382 N.4         1 EML       0.2558
     19 C9         -6.5981   29.6596   83.1676 C.2         1 EML      -0.0220
     20 C10        -7.7312   31.2942   86.3169 C.2         1 EML       0.0562
     21 C11        -4.3719   31.2630   79.4737 C.2         1 EML       0.1479
     22 C12        -5.4634   30.5657   79.1915 C.2         1 EML      -0.0058
     23 C13        -6.0877   28.3775   78.2356 C.3         1 EML       0.0137
     24 C14        -5.2135   29.5270   78.3867 C.2         1 EML       0.0332
     25 C15        -6.7587   28.7287   75.7248 C.3         1 EML       0.0096
     26 C16        -7.9167   26.1059   77.9720 C.3         1 EML      -0.0244
     27 C17        -6.5486   28.1116   74.2826 C.3         1 EML       0.0892
     28 C18        -5.9158   30.0584   75.7408 C.3         1 EML      -0.0168
     29 C19        -4.3140   34.9821   84.1304 C.3         1 EML      -0.0245
     30 C20        -8.2629   29.1315   75.8892 C.3         1 EML      -0.0168
     31 H1         -3.6011   32.9205   80.1450 H           1 EML       0.2327
     32 H2         -8.1429   27.0106   74.0465 H           1 EML       0.2097
     33 H3         -5.6839   33.0034   85.2070 H           1 EML       0.0922
     34 H4         -5.9867   25.7265   77.1515 H           1 EML       0.0812
     35 H5         -7.1547   26.0469   75.9551 H           1 EML       0.0812
     36 H6         -8.4997   31.0381   88.2038 H           1 EML       0.2577
     37 H7         -6.5983   28.3381   85.9256 H           1 EML       0.0660
     38 H8         -5.2781   27.6214   76.5460 H           1 EML       0.2059
     39 H9         -7.0329   28.7374   83.2255 H           1 EML       0.0468
     40 H10        -7.9928   32.2593   86.1107 H           1 EML       0.0974
     41 H11        -6.3506   30.7994   79.5569 H           1 EML       0.0280
     42 H12        -5.6341   27.6372   78.9032 H           1 EML       0.1036
     43 H13        -7.0694   28.5886   78.6633 H           1 EML       0.1036
     44 H14        -8.0314   25.0255   78.0832 H           1 EML       0.0281
     45 H15        -8.8763   26.5112   77.6502 H           1 EML       0.0281
     46 H16        -7.6627   26.5160   78.9522 H           1 EML       0.0281
     47 H17        -6.0418   28.8064   73.6101 H           1 EML       0.0616
     48 H18        -5.9103   27.2280   74.3449 H           1 EML       0.0616
     49 H19        -6.0951   30.6781   74.8610 H           1 EML       0.0288
     50 H20        -4.8468   29.8330   75.7730 H           1 EML       0.0288
     51 H21        -6.1665   30.6856   76.5953 H           1 EML       0.0288
     52 H22        -3.7342   35.5689   83.4147 H           1 EML       0.0384
     53 H23        -3.6910   34.8015   85.0078 H           1 EML       0.0384
     54 H24        -5.1836   35.5704   84.4229 H           1 EML       0.0384
     55 H25        -8.5765   29.7880   75.0776 H           1 EML       0.0288
     56 H26        -8.4359   29.6648   76.8215 H           1 EML       0.0288
     57 H27        -8.9174   28.2648   75.8771 H           1 EML       0.0288
@<TRIPOS>BOND
     1    15     1   1
     2     1    17   1
     3     1    20   2
     4     2    11   1
     5    21     2   1
     6    27     3   1
     7    14     4   1
     8    21     4   1
     9     7     5   2
    10     8     5   1
    11    13     6   2
    12     6    19   1
    13    16     7   1
    14     7    29   1
    15    13     8   1
    16     8    15   1
    17    18     9   1
    18     9    26   1
    19    10    12   1
    20    20    10   1
    21    11    13   1
    22    11    16   2
    23    17    12   2
    24    24    14   2
    25    15    19   2
    26    18    23   1
    27    25    18   1
    28    22    21   2
    29    24    22   1
    30    23    24   1
    31    25    27   1
    32    25    28   1
    33    25    30   1
    34     2    31   1
    35     3    32   1
    36     5    33   1
    37     9    34   1
    38     9    35   1
    39    10    36   1
    40    17    37   1
    41    18    38   1
    42    19    39   1
    43    20    40   1
    44    22    41   1
    45    23    42   1
    46    23    43   1
    47    26    44   1
    48    26    45   1
    49    26    46   1
    50    27    47   1
    51    27    48   1
    52    28    49   1
    53    28    50   1
    54    28    51   1
    55    29    52   1
    56    29    53   1
    57    29    54   1
    58    30    55   1
    59    30    56   1
    60    30    57   1
@<TRIPOS>SUBSTRUCTURE
     1  EML      1

