@<TRIPOS>MOLECULE
3myg_ligand_045
    57    60
SMALL
GAST_HUCK
****
This file was generated by PARSER (from files_GN.cpp)

@<TRIPOS>ATOM
      1 C1         -4.7370   43.8247   81.8485 C.2         1 EML       0.0195
      2 N1         -0.7381   40.2124   84.6317 N.pl3       1 EML      -0.2184
      3 O1         -1.4954   31.8677   84.3073 O.3         1 EML      -0.3892
      4 S1         -0.8431   38.9321   82.2375 S.3         1 EML       0.0206
      5 C2         -2.5282   43.8950   84.1013 C.2         1 EML       0.0730
      6 N2         -3.2116   40.7318   82.8020 N.2         1 EML      -0.3304
      7 C3         -1.5695   43.6859   85.0328 C.2         1 EML       0.0276
      8 N3         -2.9777   42.8597   83.3573 N.pl3       1 EML      -0.2136
      9 C4         -1.0953   35.3494   86.1390 C.3         1 EML      -0.0323
     10 N4         -5.3731   45.7518   80.9878 N.pl3       1 EML      -0.2209
     11 C5         -1.4159   41.3687   84.4142 C.2         1 EML       0.1947
     12 N5         -6.3422   44.9228   80.7667 N.2         1 EML      -0.2182
     13 C6         -2.4913   41.6030   83.5177 C.2         1 EML       0.1969
     14 N6         -0.5211   37.3243   82.4046 N.2         1 EML      -0.3061
     15 C7         -3.9730   42.7928   82.4433 C.2         1 EML       0.0797
     16 N7         -1.0419   42.4488   85.1557 N.2         1 EML      -0.2843
     17 C8         -5.9941   43.7242   81.2580 C.2         1 EML       0.0048
     18 N8         -0.9728   34.7326   84.7573 N.4         1 EML       0.2558
     19 C9         -4.1219   41.4432   82.1300 C.2         1 EML      -0.0220
     20 C10        -4.3713   45.1440   81.6384 C.2         1 EML       0.0562
     21 C11        -0.7400   39.0771   83.9310 C.2         1 EML       0.1479
     22 C12        -0.3865   37.9199   84.4822 C.2         1 EML      -0.0058
     23 C13         0.0065   35.5268   83.9133 C.3         1 EML       0.0137
     24 C14        -0.3347   36.9167   83.5961 C.2         1 EML       0.0332
     25 C15        -2.2531   34.2237   84.0586 C.3         1 EML       0.0096
     26 C16        -1.5106   34.4367   87.3163 C.3         1 EML      -0.0244
     27 C17        -2.5788   32.7642   84.5501 C.3         1 EML       0.0892
     28 C18        -2.1428   34.0830   82.4935 C.3         1 EML      -0.0168
     29 C19        -1.0995   44.7542   85.8932 C.3         1 EML      -0.0245
     30 C20        -3.4937   35.1440   84.3182 C.3         1 EML      -0.0168
     31 H1         -0.1738   40.2087   85.4151 H           1 EML       0.2327
     32 H2         -1.9030   30.9762   84.2522 H           1 EML       0.2097
     33 H3         -2.9494   44.7910   84.0204 H           1 EML       0.0922
     34 H4         -1.7692   36.2094   86.1220 H           1 EML       0.0812
     35 H5         -0.1184   35.7361   86.4484 H           1 EML       0.0812
     36 H6         -5.3676   46.6830   80.7091 H           1 EML       0.2577
     37 H7         -6.5776   42.8876   81.2088 H           1 EML       0.0660
     38 H8         -0.4491   33.8740   84.9339 H           1 EML       0.2059
     39 H9         -4.7990   41.0468   81.4796 H           1 EML       0.0468
     40 H10        -3.4814   45.5826   81.8840 H           1 EML       0.0974
     41 H11        -0.1512   37.8241   85.4424 H           1 EML       0.0280
     42 H12         0.2024   34.9868   82.9872 H           1 EML       0.1036
     43 H13         0.9860   35.5251   84.3962 H           1 EML       0.1036
     44 H14        -1.2713   34.9190   88.2658 H           1 EML       0.0281
     45 H15        -0.9785   33.4840   87.2683 H           1 EML       0.0281
     46 H16        -2.5857   34.2670   87.3151 H           1 EML       0.0281
     47 H17        -2.7981   32.7318   85.6126 H           1 EML       0.0616
     48 H18        -3.4650   32.3717   84.0447 H           1 EML       0.0616
     49 H19        -3.0415   33.6369   82.0613 H           1 EML       0.0288
     50 H20        -1.2944   33.4535   82.2141 H           1 EML       0.0288
     51 H21        -2.0234   35.0528   82.0145 H           1 EML       0.0288
     52 H22        -0.3377   44.3986   86.5917 H           1 EML       0.0384
     53 H23        -1.9314   45.1571   86.4753 H           1 EML       0.0384
     54 H24        -0.6645   45.5573   85.2933 H           1 EML       0.0384
     55 H25        -4.3686   34.8029   83.7600 H           1 EML       0.0288
     56 H26        -3.2749   36.1666   84.0091 H           1 EML       0.0288
     57 H27        -3.7721   35.1554   85.3725 H           1 EML       0.0288
@<TRIPOS>BOND
     1    15     1   1
     2     1    17   1
     3     1    20   2
     4     2    11   1
     5    21     2   1
     6    27     3   1
     7    14     4   1
     8    21     4   1
     9     7     5   2
    10     8     5   1
    11    13     6   2
    12     6    19   1
    13    16     7   1
    14     7    29   1
    15    13     8   1
    16     8    15   1
    17    18     9   1
    18     9    26   1
    19    10    12   1
    20    20    10   1
    21    11    13   1
    22    11    16   2
    23    17    12   2
    24    24    14   2
    25    15    19   2
    26    18    23   1
    27    25    18   1
    28    22    21   2
    29    24    22   1
    30    23    24   1
    31    25    27   1
    32    25    28   1
    33    25    30   1
    34     2    31   1
    35     3    32   1
    36     5    33   1
    37     9    34   1
    38     9    35   1
    39    10    36   1
    40    17    37   1
    41    18    38   1
    42    19    39   1
    43    20    40   1
    44    22    41   1
    45    23    42   1
    46    23    43   1
    47    26    44   1
    48    26    45   1
    49    26    46   1
    50    27    47   1
    51    27    48   1
    52    28    49   1
    53    28    50   1
    54    28    51   1
    55    29    52   1
    56    29    53   1
    57    29    54   1
    58    30    55   1
    59    30    56   1
    60    30    57   1
@<TRIPOS>SUBSTRUCTURE
     1  EML      1

