@<TRIPOS>MOLECULE
3myg_ligand_007
    57    60
SMALL
GAST_HUCK
****
This file was generated by PARSER (from files_GN.cpp)

@<TRIPOS>ATOM
      1 C1         -3.6795   33.5332   84.4091 C.2         1 EML       0.0195
      2 N1         -6.4462   28.4351   82.6825 N.pl3       1 EML      -0.2184
      3 O1         -5.6677   28.6906   74.3296 O.3         1 EML      -0.3892
      4 S1         -5.0750   28.7362   80.3719 S.3         1 EML       0.0206
      5 C2         -4.5849   30.7721   85.5184 C.2         1 EML       0.0730
      6 N2         -5.4490   31.3598   82.1787 N.2         1 EML      -0.3304
      7 C3         -5.1328   29.5669   85.8123 C.2         1 EML       0.0276
      8 N3         -4.7057   31.2740   84.2685 N.pl3       1 EML      -0.2136
      9 C4         -8.6293   29.2541   77.4106 C.3         1 EML      -0.0323
     10 N4         -2.0816   34.7214   85.3594 N.pl3       1 EML      -0.2209
     11 C5         -5.8395   29.2917   83.5379 C.2         1 EML       0.1947
     12 N5         -3.0980   35.5308   85.2140 N.2         1 EML      -0.2182
     13 C6         -5.3267   30.5925   83.2764 C.2         1 EML       0.1969
     14 N6         -5.8946   28.0582   79.0997 N.2         1 EML      -0.3061
     15 C7         -4.3791   32.4907   83.7807 C.2         1 EML       0.0797
     16 N7         -5.7399   28.8734   84.8296 N.2         1 EML      -0.2843
     17 C8         -4.0836   34.8502   84.6123 C.2         1 EML       0.0048
     18 N8         -8.2376   27.8224   77.1230 N.4         1 EML       0.2558
     19 C9         -4.8722   32.5349   82.4756 C.2         1 EML      -0.0220
     20 C10        -2.3747   33.5033   84.9082 C.2         1 EML       0.0562
     21 C11        -6.4354   28.4308   81.3592 C.2         1 EML       0.1479
     22 C12        -7.3904   27.8168   80.6680 C.2         1 EML      -0.0058
     23 C13        -7.9511   27.0366   78.3836 C.3         1 EML       0.0137
     24 C14        -7.0738   27.6399   79.3793 C.2         1 EML       0.0332
     25 C15        -7.3355   27.6371   75.8834 C.3         1 EML       0.0096
     26 C16        -9.9583   29.4737   78.1849 C.3         1 EML      -0.0244
     27 C17        -6.3604   28.8336   75.5751 C.3         1 EML       0.0892
     28 C18        -8.3084   27.4616   74.6666 C.3         1 EML      -0.0168
     29 C19        -5.0802   29.0083   87.1483 C.3         1 EML      -0.0245
     30 C20        -6.4581   26.3333   75.9217 C.3         1 EML      -0.0168
     31 H1         -6.9173   27.6921   83.0961 H           1 EML       0.2327
     32 H2         -5.3706   29.5938   74.0796 H           1 EML       0.2097
     33 H3         -4.1322   31.3009   86.2257 H           1 EML       0.0922
     34 H4         -8.7670   29.7841   76.4691 H           1 EML       0.0812
     35 H5         -7.8312   29.7581   77.9527 H           1 EML       0.0812
     36 H6         -1.2376   34.9755   85.7643 H           1 EML       0.2577
     37 H7         -5.0024   35.2398   84.3776 H           1 EML       0.0660
     38 H8         -9.1232   27.4048   76.8277 H           1 EML       0.2059
     39 H9         -4.7958   33.3237   81.8318 H           1 EML       0.0468
     40 H10        -1.7387   32.6993   84.8917 H           1 EML       0.0974
     41 H11        -8.2170   27.4448   81.0861 H           1 EML       0.0280
     42 H12        -7.5544   26.0487   78.1435 H           1 EML       0.1036
     43 H13        -8.9221   26.8198   78.8435 H           1 EML       0.1036
     44 H14       -10.1723   30.5444   78.2458 H           1 EML       0.0281
     45 H15        -9.8929   29.0840   79.2027 H           1 EML       0.0281
     46 H16       -10.7786   28.9876   77.6622 H           1 EML       0.0281
     47 H17        -6.9096   29.7756   75.5173 H           1 EML       0.0616
     48 H18        -5.6165   28.9266   76.3678 H           1 EML       0.0616
     49 H19        -7.7660   27.2945   73.7301 H           1 EML       0.0288
     50 H20        -8.9384   28.3450   74.5224 H           1 EML       0.0288
     51 H21        -8.9738   26.6036   74.8242 H           1 EML       0.0288
     52 H22        -5.5542   28.0240   87.1844 H           1 EML       0.0384
     53 H23        -5.6036   29.6657   87.8458 H           1 EML       0.0384
     54 H24        -4.0429   28.8995   87.4696 H           1 EML       0.0384
     55 H25        -5.9595   26.1476   74.9648 H           1 EML       0.0288
     56 H26        -7.0728   25.4655   76.1450 H           1 EML       0.0288
     57 H27        -5.6883   26.4155   76.6843 H           1 EML       0.0288
@<TRIPOS>BOND
     1    15     1   1
     2     1    17   1
     3     1    20   2
     4     2    11   1
     5    21     2   1
     6    27     3   1
     7    14     4   1
     8    21     4   1
     9     7     5   2
    10     8     5   1
    11    13     6   2
    12     6    19   1
    13    16     7   1
    14     7    29   1
    15    13     8   1
    16     8    15   1
    17    18     9   1
    18     9    26   1
    19    10    12   1
    20    20    10   1
    21    11    13   1
    22    11    16   2
    23    17    12   2
    24    24    14   2
    25    15    19   2
    26    18    23   1
    27    25    18   1
    28    22    21   2
    29    24    22   1
    30    23    24   1
    31    25    27   1
    32    25    28   1
    33    25    30   1
    34     2    31   1
    35     3    32   1
    36     5    33   1
    37     9    34   1
    38     9    35   1
    39    10    36   1
    40    17    37   1
    41    18    38   1
    42    19    39   1
    43    20    40   1
    44    22    41   1
    45    23    42   1
    46    23    43   1
    47    26    44   1
    48    26    45   1
    49    26    46   1
    50    27    47   1
    51    27    48   1
    52    28    49   1
    53    28    50   1
    54    28    51   1
    55    29    52   1
    56    29    53   1
    57    29    54   1
    58    30    55   1
    59    30    56   1
    60    30    57   1
@<TRIPOS>SUBSTRUCTURE
     1  EML      1

