@<TRIPOS>MOLECULE
3myg_ligand_004
    57    60
SMALL
GAST_HUCK
****
This file was generated by PARSER (from files_GN.cpp)

@<TRIPOS>ATOM
      1 C1         -5.3310   43.1692   80.7999 C.2         1 EML       0.0195
      2 N1         -1.1802   39.7490   83.3374 N.pl3       1 EML      -0.2184
      3 O1         -1.5511   31.8630   83.3876 O.3         1 EML      -0.3892
      4 S1          0.9052   38.1646   83.5842 S.3         1 EML       0.0206
      5 C2         -5.1356   40.6734   82.5576 C.2         1 EML       0.0730
      6 N2         -2.0618   42.1937   81.8728 N.2         1 EML      -0.3304
      7 C3         -4.8259   39.5821   83.2962 C.2         1 EML       0.0276
      8 N3         -4.1397   41.4676   82.1209 N.pl3       1 EML      -0.2136
      9 C4         -1.0475   33.1460   86.1256 C.3         1 EML      -0.0323
     10 N4         -7.0447   43.5992   79.4901 N.pl3       1 EML      -0.2209
     11 C5         -2.4862   40.0768   83.1425 C.2         1 EML       0.1947
     12 N5         -7.1231   44.4362   80.4817 N.2         1 EML      -0.2182
     13 C6         -2.8349   41.2317   82.4042 C.2         1 EML       0.1969
     14 N6          0.6529   36.8031   84.4818 N.2         1 EML      -0.3061
     15 C7         -4.1914   42.5847   81.3718 C.2         1 EML       0.0797
     16 N7         -3.5324   39.3086   83.5459 N.2         1 EML      -0.2843
     17 C8         -6.0883   44.2117   81.3106 C.2         1 EML       0.0048
     18 N8         -1.0935   34.2786   85.1167 N.4         1 EML       0.2558
     19 C9         -2.8865   43.0443   81.2446 C.2         1 EML      -0.0220
     20 C10        -5.9874   42.7881   79.6371 C.2         1 EML       0.0562
     21 C11        -0.6954   38.6469   83.9199 C.2         1 EML       0.1479
     22 C12        -1.2733   37.7940   84.7638 C.2         1 EML      -0.0058
     23 C13        -0.9135   35.6000   85.8451 C.3         1 EML       0.0137
     24 C14        -0.5073   36.7302   85.0287 C.2         1 EML       0.0332
     25 C15        -2.1594   34.2140   83.9989 C.3         1 EML       0.0096
     26 C16        -2.2517   32.9868   87.0918 C.3         1 EML      -0.0244
     27 C17        -2.6354   32.7539   83.6384 C.3         1 EML       0.0892
     28 C18        -1.5564   34.7829   82.6623 C.3         1 EML      -0.0168
     29 C19        -5.8441   38.6657   83.7639 C.3         1 EML      -0.0245
     30 C20        -3.4634   35.0348   84.3169 C.3         1 EML      -0.0168
     31 H1         -0.5308   40.3467   82.9327 H           1 EML       0.2327
     32 H2         -1.9524   30.9685   83.3835 H           1 EML       0.2097
     33 H3         -6.0860   40.8828   82.3323 H           1 EML       0.0922
     34 H4         -0.1596   33.2776   86.7524 H           1 EML       0.0812
     35 H5         -0.8745   32.1948   85.6196 H           1 EML       0.0812
     36 H6         -7.6709   43.5614   78.7436 H           1 EML       0.2577
     37 H7         -5.9085   44.7155   82.1809 H           1 EML       0.0660
     38 H8         -0.2072   34.1605   84.6160 H           1 EML       0.2059
     39 H9         -2.5918   43.8767   80.7349 H           1 EML       0.0468
     40 H10        -5.7172   42.0334   78.9983 H           1 EML       0.0974
     41 H11        -2.1918   37.8996   85.1259 H           1 EML       0.0280
     42 H12        -0.1251   35.5187   86.6013 H           1 EML       0.1036
     43 H13        -1.8309   35.8402   86.4005 H           1 EML       0.1036
     44 H14        -2.0243   32.2162   87.8333 H           1 EML       0.0281
     45 H15        -3.1432   32.6869   86.5439 H           1 EML       0.0281
     46 H16        -2.4489   33.9176   87.6282 H           1 EML       0.0281
     47 H17        -3.2474   32.3294   84.4346 H           1 EML       0.0616
     48 H18        -3.2558   32.7518   82.7372 H           1 EML       0.0616
     49 H19        -2.2251   34.6159   81.8116 H           1 EML       0.0288
     50 H20        -0.5975   34.3049   82.4388 H           1 EML       0.0288
     51 H21        -1.3932   35.8555   82.7048 H           1 EML       0.0288
     52 H22        -5.4162   37.8384   84.3388 H           1 EML       0.0384
     53 H23        -6.3765   38.2436   82.9070 H           1 EML       0.0384
     54 H24        -6.5590   39.1874   84.4061 H           1 EML       0.0384
     55 H25        -4.2180   34.8993   83.5348 H           1 EML       0.0288
     56 H26        -3.2565   36.1038   84.3804 H           1 EML       0.0288
     57 H27        -3.9010   34.7146   85.2629 H           1 EML       0.0288
@<TRIPOS>BOND
     1    15     1   1
     2     1    17   1
     3     1    20   2
     4     2    11   1
     5    21     2   1
     6    27     3   1
     7    14     4   1
     8    21     4   1
     9     7     5   2
    10     8     5   1
    11    13     6   2
    12     6    19   1
    13    16     7   1
    14     7    29   1
    15    13     8   1
    16     8    15   1
    17    18     9   1
    18     9    26   1
    19    10    12   1
    20    20    10   1
    21    11    13   1
    22    11    16   2
    23    17    12   2
    24    24    14   2
    25    15    19   2
    26    18    23   1
    27    25    18   1
    28    22    21   2
    29    24    22   1
    30    23    24   1
    31    25    27   1
    32    25    28   1
    33    25    30   1
    34     2    31   1
    35     3    32   1
    36     5    33   1
    37     9    34   1
    38     9    35   1
    39    10    36   1
    40    17    37   1
    41    18    38   1
    42    19    39   1
    43    20    40   1
    44    22    41   1
    45    23    42   1
    46    23    43   1
    47    26    44   1
    48    26    45   1
    49    26    46   1
    50    27    47   1
    51    27    48   1
    52    28    49   1
    53    28    50   1
    54    28    51   1
    55    29    52   1
    56    29    53   1
    57    29    54   1
    58    30    55   1
    59    30    56   1
    60    30    57   1
@<TRIPOS>SUBSTRUCTURE
     1  EML      1

