@<TRIPOS>MOLECULE
3myg_ligand_056
    57    60
SMALL
GAST_HUCK
****
This file was generated by PARSER (from files_GN.cpp)

@<TRIPOS>ATOM
      1 C1         -7.3283   21.6792   79.9786 C.2         1 EML       0.0195
      2 N1        -10.5113   26.4828   81.7712 N.pl3       1 EML      -0.2184
      3 O1         -6.1964   27.9296   87.5843 O.3         1 EML      -0.3892
      4 S1         -8.8826   25.9838   83.8977 S.3         1 EML       0.0206
      5 C2        -10.1061   23.0348   79.5456 C.2         1 EML       0.0730
      6 N2         -7.7950   24.9292   81.3541 N.2         1 EML      -0.3304
      7 C3        -11.2064   23.8187   79.4712 C.2         1 EML       0.0276
      8 N3         -9.0353   23.4680   80.2480 N.pl3       1 EML      -0.2136
      9 C4         -7.1837   30.8820   85.9293 C.3         1 EML      -0.0323
     10 N4         -6.0963   20.0546   79.1795 N.pl3       1 EML      -0.2209
     11 C5        -10.2317   25.4101   80.9854 C.2         1 EML       0.1947
     12 N5         -7.0751   19.4897   79.8142 N.2         1 EML      -0.2182
     13 C6         -9.0332   24.6503   80.9119 C.2         1 EML       0.1969
     14 N6         -8.6174   27.3347   84.7894 N.2         1 EML      -0.3061
     15 C7         -7.8004   22.9426   80.3657 C.2         1 EML       0.0797
     16 N7        -11.2476   24.9521   80.2051 N.2         1 EML      -0.2843
     17 C8         -7.8642   20.4482   80.3267 C.2         1 EML       0.0048
     18 N8         -8.0553   29.6711   86.1832 N.4         1 EML       0.2558
     19 C9         -7.0246   23.8829   81.0326 C.2         1 EML      -0.0220
     20 C10        -6.1805   21.3876   79.2628 C.2         1 EML       0.0562
     21 C11        -9.8676   26.9166   82.8622 C.2         1 EML       0.1479
     22 C12       -10.0441   28.1368   83.3677 C.2         1 EML      -0.0058
     23 C13        -9.2101   29.6127   85.1920 C.3         1 EML       0.0137
     24 C14        -9.2909   28.3635   84.4513 C.2         1 EML       0.0332
     25 C15        -8.3107   29.2314   87.6361 C.3         1 EML       0.0096
     26 C16        -7.7548   32.2983   86.2108 C.3         1 EML      -0.0244
     27 C17        -6.9488   28.8777   88.3377 C.3         1 EML       0.0892
     28 C18        -9.1796   27.9227   87.7500 C.3         1 EML      -0.0168
     29 C19       -12.3388   23.4715   78.6339 C.3         1 EML      -0.0245
     30 C20        -9.0494   30.3100   88.4916 C.3         1 EML      -0.0168
     31 H1        -11.3313   26.9540   81.5445 H           1 EML       0.2327
     32 H2         -5.3835   27.7714   88.1084 H           1 EML       0.2097
     33 H3        -10.0529   22.1918   79.0249 H           1 EML       0.0922
     34 H4         -6.8981   30.8615   84.8725 H           1 EML       0.0812
     35 H5         -6.2398   30.7868   86.4567 H           1 EML       0.0812
     36 H6         -5.3901   19.5801   78.7196 H           1 EML       0.2577
     37 H7         -8.6905   20.2924   80.9082 H           1 EML       0.0660
     38 H8         -7.4428   28.9243   85.8572 H           1 EML       0.2059
     39 H9         -6.0340   23.7869   81.2783 H           1 EML       0.0468
     40 H10        -5.5245   22.0605   78.8629 H           1 EML       0.0974
     41 H11       -10.6228   28.8236   82.9443 H           1 EML       0.0280
     42 H12        -9.1345   30.4005   84.4324 H           1 EML       0.1036
     43 H13       -10.1643   29.7763   85.6933 H           1 EML       0.1036
     44 H14        -7.2122   33.0333   85.6153 H           1 EML       0.0281
     45 H15        -7.6258   32.5772   87.2536 H           1 EML       0.0281
     46 H16        -8.8118   32.3609   85.9582 H           1 EML       0.0281
     47 H17        -6.3378   29.7692   88.4603 H           1 EML       0.0616
     48 H18        -7.1051   28.4715   89.3379 H           1 EML       0.0616
     49 H19        -9.3293   27.6426   88.7985 H           1 EML       0.0288
     50 H20        -8.7061   27.0705   87.2622 H           1 EML       0.0288
     51 H21       -10.1708   28.0506   87.3158 H           1 EML       0.0288
     52 H22       -13.1377   24.2111   78.7195 H           1 EML       0.0384
     53 H23       -12.7411   22.4981   78.9194 H           1 EML       0.0384
     54 H24       -12.0323   23.4312   77.5872 H           1 EML       0.0384
     55 H25        -9.4251   29.8987   89.4346 H           1 EML       0.0288
     56 H26        -9.8983   30.7225   87.9457 H           1 EML       0.0288
     57 H27        -8.3813   31.1248   88.7578 H           1 EML       0.0288
@<TRIPOS>BOND
     1    15     1   1
     2     1    17   1
     3     1    20   2
     4     2    11   1
     5    21     2   1
     6    27     3   1
     7    14     4   1
     8    21     4   1
     9     7     5   2
    10     8     5   1
    11    13     6   2
    12     6    19   1
    13    16     7   1
    14     7    29   1
    15    13     8   1
    16     8    15   1
    17    18     9   1
    18     9    26   1
    19    10    12   1
    20    20    10   1
    21    11    13   1
    22    11    16   2
    23    17    12   2
    24    24    14   2
    25    15    19   2
    26    18    23   1
    27    25    18   1
    28    22    21   2
    29    24    22   1
    30    23    24   1
    31    25    27   1
    32    25    28   1
    33    25    30   1
    34     2    31   1
    35     3    32   1
    36     5    33   1
    37     9    34   1
    38     9    35   1
    39    10    36   1
    40    17    37   1
    41    18    38   1
    42    19    39   1
    43    20    40   1
    44    22    41   1
    45    23    42   1
    46    23    43   1
    47    26    44   1
    48    26    45   1
    49    26    46   1
    50    27    47   1
    51    27    48   1
    52    28    49   1
    53    28    50   1
    54    28    51   1
    55    29    52   1
    56    29    53   1
    57    29    54   1
    58    30    55   1
    59    30    56   1
    60    30    57   1
@<TRIPOS>SUBSTRUCTURE
     1  EML      1

