@<TRIPOS>MOLECULE
3myg_ligand_023
    57    60
SMALL
GAST_HUCK
****
This file was generated by PARSER (from files_GN.cpp)

@<TRIPOS>ATOM
      1 C1         -5.3628   42.6254   85.9015 C.2         1 EML       0.0195
      2 N1         -2.0401   39.3460   81.9727 N.pl3       1 EML      -0.2184
      3 O1         -5.2123   33.6074   83.4583 O.3         1 EML      -0.3892
      4 S1         -1.8963   37.7899   84.1958 S.3         1 EML       0.0206
      5 C2         -3.3008   42.9629   83.4445 C.2         1 EML       0.0730
      6 N2         -4.2756   39.6866   84.1161 N.2         1 EML      -0.3304
      7 C3         -2.4894   42.8690   82.3689 C.2         1 EML       0.0276
      8 N3         -3.8594   41.8559   83.9893 N.pl3       1 EML      -0.2136
      9 C4         -3.0290   33.3150   80.6723 C.3         1 EML      -0.0323
     10 N4         -6.4629   43.4407   87.6496 N.pl3       1 EML      -0.2209
     11 C5         -2.5945   40.4820   82.4574 C.2         1 EML       0.1947
     12 N5         -5.9960   44.4620   87.0118 N.2         1 EML      -0.2182
     13 C6         -3.5429   40.6269   83.5051 C.2         1 EML       0.1969
     14 N6         -1.6643   36.2084   83.8011 N.2         1 EML      -0.3061
     15 C7         -4.7610   41.6926   84.9973 C.2         1 EML       0.0797
     16 N7         -2.1559   41.6466   81.9103 N.2         1 EML      -0.2843
     17 C8         -5.3222   44.0210   85.9380 C.2         1 EML       0.0048
     18 N8         -2.7259   33.7964   82.0816 N.4         1 EML       0.2558
     19 C9         -5.0133   40.3148   85.0356 C.2         1 EML      -0.0220
     20 C10        -6.1270   42.3059   87.0218 C.2         1 EML       0.0562
     21 C11        -2.0043   38.1348   82.5244 C.2         1 EML       0.1479
     22 C12        -1.7642   37.0462   81.8006 C.2         1 EML      -0.0058
     23 C13        -1.4327   34.6019   82.0354 C.3         1 EML       0.0137
     24 C14        -1.6195   35.9488   82.5518 C.2         1 EML       0.0332
     25 C15        -2.8640   32.7962   83.2471 C.3         1 EML       0.0096
     26 C16        -4.4374   32.7974   80.3041 C.3         1 EML      -0.0244
     27 C17        -4.3750   32.4532   83.5479 C.3         1 EML       0.0892
     28 C18        -2.3406   33.3513   84.6290 C.3         1 EML      -0.0168
     29 C19        -1.9306   44.0460   81.7344 C.3         1 EML      -0.0245
     30 C20        -2.0861   31.4758   82.9368 C.3         1 EML      -0.0168
     31 H1         -1.5405   39.4405   81.1440 H           1 EML       0.2327
     32 H2         -6.0181   33.3843   83.9710 H           1 EML       0.2097
     33 H3         -3.5032   43.8567   83.8108 H           1 EML       0.0922
     34 H4         -2.3038   32.5488   80.3805 H           1 EML       0.0812
     35 H5         -2.8837   34.1598   79.9884 H           1 EML       0.0812
     36 H6         -6.9818   43.4885   88.4716 H           1 EML       0.2577
     37 H7         -4.8753   44.6566   85.2817 H           1 EML       0.0660
     38 H8         -3.4512   34.4911   82.2652 H           1 EML       0.2059
     39 H9         -5.6560   39.8199   85.6581 H           1 EML       0.0468
     40 H10        -6.3814   41.3729   87.3513 H           1 EML       0.0974
     41 H11        -1.6719   37.0538   80.8106 H           1 EML       0.0280
     42 H12        -1.0162   34.7001   81.0262 H           1 EML       0.1036
     43 H13        -0.6217   34.1228   82.5832 H           1 EML       0.1036
     44 H14        -4.5640   32.8140   79.2188 H           1 EML       0.0281
     45 H15        -5.2095   33.4258   80.7502 H           1 EML       0.0281
     46 H16        -4.5656   31.7622   80.6166 H           1 EML       0.0281
     47 H17        -4.7696   31.6970   82.8780 H           1 EML       0.0616
     48 H18        -4.5024   32.0303   84.5488 H           1 EML       0.0616
     49 H19        -2.4686   32.6193   85.4323 H           1 EML       0.0288
     50 H20        -2.8968   34.2446   84.9188 H           1 EML       0.0288
     51 H21        -1.2799   33.5909   84.6199 H           1 EML       0.0288
     52 H22        -1.2853   43.7934   80.8903 H           1 EML       0.0384
     53 H23        -1.3413   44.6035   82.4632 H           1 EML       0.0384
     54 H24        -2.7388   44.6826   81.3711 H           1 EML       0.0384
     55 H25        -1.9444   30.8715   83.8340 H           1 EML       0.0288
     56 H26        -1.1023   31.6936   82.5245 H           1 EML       0.0288
     57 H27        -2.6203   30.8698   82.2049 H           1 EML       0.0288
@<TRIPOS>BOND
     1    15     1   1
     2     1    17   1
     3     1    20   2
     4     2    11   1
     5    21     2   1
     6    27     3   1
     7    14     4   1
     8    21     4   1
     9     7     5   2
    10     8     5   1
    11    13     6   2
    12     6    19   1
    13    16     7   1
    14     7    29   1
    15    13     8   1
    16     8    15   1
    17    18     9   1
    18     9    26   1
    19    10    12   1
    20    20    10   1
    21    11    13   1
    22    11    16   2
    23    17    12   2
    24    24    14   2
    25    15    19   2
    26    18    23   1
    27    25    18   1
    28    22    21   2
    29    24    22   1
    30    23    24   1
    31    25    27   1
    32    25    28   1
    33    25    30   1
    34     2    31   1
    35     3    32   1
    36     5    33   1
    37     9    34   1
    38     9    35   1
    39    10    36   1
    40    17    37   1
    41    18    38   1
    42    19    39   1
    43    20    40   1
    44    22    41   1
    45    23    42   1
    46    23    43   1
    47    26    44   1
    48    26    45   1
    49    26    46   1
    50    27    47   1
    51    27    48   1
    52    28    49   1
    53    28    50   1
    54    28    51   1
    55    29    52   1
    56    29    53   1
    57    29    54   1
    58    30    55   1
    59    30    56   1
    60    30    57   1
@<TRIPOS>SUBSTRUCTURE
     1  EML      1

