@<TRIPOS>MOLECULE
3myg_ligand_077
    57    60
SMALL
GAST_HUCK
****
This file was generated by PARSER (from files_GN.cpp)

@<TRIPOS>ATOM
      1 C1         -4.3328   29.9276   94.1762 C.2         1 EML       0.0195
      2 N1         -1.1560   29.7120   89.0137 N.pl3       1 EML      -0.2184
      3 O1         -2.1470   35.6523   82.2032 O.3         1 EML      -0.3892
      4 S1         -3.6088   29.7879   87.8380 S.3         1 EML       0.0206
      5 C2         -1.6611   28.7838   93.0003 C.2         1 EML       0.0730
      6 N2         -3.5995   30.6316   90.7497 N.2         1 EML      -0.3304
      7 C3         -0.5525   28.4423   92.3052 C.2         1 EML       0.0276
      8 N3         -2.6204   29.5211   92.3990 N.pl3       1 EML      -0.2136
      9 C4         -0.3562   33.5142   85.7363 C.3         1 EML      -0.0323
     10 N4         -5.7554   29.7200   95.8365 N.pl3       1 EML      -0.2209
     11 C5         -1.4147   29.4846   90.3215 C.2         1 EML       0.1947
     12 N5         -4.5986   29.9474   96.3735 N.2         1 EML      -0.2182
     13 C6         -2.5424   29.8783   91.0896 C.2         1 EML       0.1969
     14 N6         -3.5942   30.7153   86.4771 N.2         1 EML      -0.3061
     15 C7         -3.7811   30.0145   92.8830 C.2         1 EML       0.0797
     16 N7         -0.4610   28.8073   91.0097 N.2         1 EML      -0.2843
     17 C8         -3.6887   30.0786   95.3947 C.2         1 EML       0.0048
     18 N8         -1.8287   33.4739   85.3638 N.4         1 EML       0.2558
     19 C9         -4.3866   30.7059   91.8312 C.2         1 EML      -0.0220
     20 C10        -5.6644   29.7052   94.5011 C.2         1 EML       0.0562
     21 C11        -1.9571   30.1517   88.0476 C.2         1 EML       0.1479
     22 C12        -1.4863   30.7807   86.9757 C.2         1 EML      -0.0058
     23 C13        -2.2739   32.0725   84.9901 C.3         1 EML       0.0137
     24 C14        -2.4486   31.1785   86.1325 C.2         1 EML       0.0332
     25 C15        -2.3247   34.6357   84.4880 C.3         1 EML       0.0096
     26 C16        -0.1211   33.9324   87.2043 C.3         1 EML      -0.0244
     27 C17        -1.6391   34.6434   83.0755 C.3         1 EML       0.0892
     28 C18        -2.0567   35.9941   85.2333 C.3         1 EML      -0.0168
     29 C19         0.5177   27.6646   92.9005 C.3         1 EML      -0.0245
     30 C20        -3.8850   34.6031   84.2760 C.3         1 EML      -0.0168
     31 H1         -0.2419   29.5477   88.7455 H           1 EML       0.2327
     32 H2         -1.8024   36.5011   82.5581 H           1 EML       0.2097
     33 H3         -1.7660   28.4925   93.9441 H           1 EML       0.0922
     34 H4          0.2095   34.2139   85.1274 H           1 EML       0.0812
     35 H5          0.1467   32.5578   85.5859 H           1 EML       0.0812
     36 H6         -6.5778   29.5851   96.3305 H           1 EML       0.2577
     37 H7         -2.7013   30.2915   95.5381 H           1 EML       0.0660
     38 H8         -2.3052   33.6402   86.2517 H           1 EML       0.2059
     39 H9         -5.2727   31.2223   91.8755 H           1 EML       0.0468
     40 H10        -6.4320   29.5401   93.8489 H           1 EML       0.0974
     41 H11        -0.5203   30.9735   86.8353 H           1 EML       0.0280
     42 H12        -1.5810   31.6075   84.2862 H           1 EML       0.1036
     43 H13        -3.2326   32.0926   84.4816 H           1 EML       0.1036
     44 H14         0.9414   33.8650   87.4476 H           1 EML       0.0281
     45 H15        -0.6763   33.2808   87.8816 H           1 EML       0.0281
     46 H16        -0.4409   34.9619   87.3688 H           1 EML       0.0281
     47 H17        -0.5620   34.7988   83.1509 H           1 EML       0.0616
     48 H18        -1.7943   33.6827   82.5795 H           1 EML       0.0616
     49 H19        -2.4873   36.8451   84.7063 H           1 EML       0.0288
     50 H20        -0.9931   36.2084   85.3346 H           1 EML       0.0288
     51 H21        -2.4975   35.9600   86.2349 H           1 EML       0.0288
     52 H22         1.3315   27.5007   92.1892 H           1 EML       0.0384
     53 H23         0.1410   26.6882   93.2165 H           1 EML       0.0384
     54 H24         0.9224   28.1900   93.7686 H           1 EML       0.0384
     55 H25        -4.2615   35.5624   83.9054 H           1 EML       0.0288
     56 H26        -4.3955   34.3910   85.2146 H           1 EML       0.0288
     57 H27        -4.1861   33.8594   83.5392 H           1 EML       0.0288
@<TRIPOS>BOND
     1    15     1   1
     2     1    17   1
     3     1    20   2
     4     2    11   1
     5    21     2   1
     6    27     3   1
     7    14     4   1
     8    21     4   1
     9     7     5   2
    10     8     5   1
    11    13     6   2
    12     6    19   1
    13    16     7   1
    14     7    29   1
    15    13     8   1
    16     8    15   1
    17    18     9   1
    18     9    26   1
    19    10    12   1
    20    20    10   1
    21    11    13   1
    22    11    16   2
    23    17    12   2
    24    24    14   2
    25    15    19   2
    26    18    23   1
    27    25    18   1
    28    22    21   2
    29    24    22   1
    30    23    24   1
    31    25    27   1
    32    25    28   1
    33    25    30   1
    34     2    31   1
    35     3    32   1
    36     5    33   1
    37     9    34   1
    38     9    35   1
    39    10    36   1
    40    17    37   1
    41    18    38   1
    42    19    39   1
    43    20    40   1
    44    22    41   1
    45    23    42   1
    46    23    43   1
    47    26    44   1
    48    26    45   1
    49    26    46   1
    50    27    47   1
    51    27    48   1
    52    28    49   1
    53    28    50   1
    54    28    51   1
    55    29    52   1
    56    29    53   1
    57    29    54   1
    58    30    55   1
    59    30    56   1
    60    30    57   1
@<TRIPOS>SUBSTRUCTURE
     1  EML      1

