@<TRIPOS>MOLECULE
3myg_ligand_061
    57    60
SMALL
GAST_HUCK
****
This file was generated by PARSER (from files_GN.cpp)

@<TRIPOS>ATOM
      1 C1         -5.6332   29.4782   76.3210 C.2         1 EML       0.0195
      2 N1         -8.6095   25.2839   79.2951 N.pl3       1 EML      -0.2184
      3 O1        -15.0188   19.8125   82.5862 O.3         1 EML      -0.3892
      4 S1         -9.8105   25.4203   81.7475 S.3         1 EML       0.0206
      5 C2         -7.3106   29.1913   78.8917 C.2         1 EML       0.0730
      6 N2         -6.9646   26.2421   77.0320 N.2         1 EML      -0.3304
      7 C3         -8.0596   28.8421   79.9667 C.2         1 EML       0.0276
      8 N3         -6.9956   28.2505   77.9753 N.pl3       1 EML      -0.2136
      9 C4        -12.5885   20.3741   80.5080 C.3         1 EML      -0.0323
     10 N4         -5.2918   31.3516   75.2381 N.pl3       1 EML      -0.2209
     11 C5         -8.1978   26.5720   79.1807 C.2         1 EML       0.1947
     12 N5         -4.1484   31.0106   75.7438 N.2         1 EML      -0.2182
     13 C6         -7.4137   26.9674   78.0729 C.2         1 EML       0.1969
     14 N6        -10.4140   23.9549   82.1925 N.2         1 EML      -0.3061
     15 C7         -6.2540   28.3422   76.8529 C.2         1 EML       0.0797
     16 N7         -8.4725   27.5624   80.0756 N.2         1 EML      -0.2843
     17 C8         -4.3032   29.8579   76.4200 C.2         1 EML       0.0048
     18 N8        -12.2341   21.4319   81.5374 N.4         1 EML       0.2558
     19 C9         -6.2469   27.0798   76.2691 C.2         1 EML      -0.0220
     20 C10        -6.2398   30.4620   75.5637 C.2         1 EML       0.0562
     21 C11        -9.3111   24.7107   80.2760 C.2         1 EML       0.1479
     22 C12        -9.6753   23.4302   80.2236 C.2         1 EML      -0.0058
     23 C13       -10.7279   21.6530   81.6262 C.3         1 EML       0.0137
     24 C14       -10.3243   23.0215   81.3269 C.2         1 EML       0.0332
     25 C15       -13.0307   21.3879   82.8513 C.3         1 EML       0.0096
     26 C16       -13.0102   21.0279   79.1738 C.3         1 EML      -0.0244
     27 C17       -14.5846   21.1741   82.5945 C.3         1 EML       0.0892
     28 C18       -12.9237   22.7704   83.5829 C.3         1 EML      -0.0168
     29 C19        -8.4341   29.8003   80.9833 C.3         1 EML      -0.0245
     30 C20       -12.5034   20.2967   83.8464 C.3         1 EML      -0.0168
     31 H1         -8.3480   24.6946   78.5693 H           1 EML       0.2327
     32 H2        -15.9706   19.8554   82.3632 H           1 EML       0.2097
     33 H3         -6.9968   30.1294   78.7759 H           1 EML       0.0922
     34 H4        -13.4121   19.7390   80.8168 H           1 EML       0.0812
     35 H5        -11.7725   19.6728   80.3010 H           1 EML       0.0812
     36 H6         -5.4448   32.1430   74.6984 H           1 EML       0.2577
     37 H7         -3.5679   29.3499   76.9136 H           1 EML       0.0660
     38 H8        -12.5761   22.2973   81.1127 H           1 EML       0.2059
     39 H9         -5.7782   26.8247   75.3968 H           1 EML       0.0468
     40 H10        -7.2237   30.5002   75.3011 H           1 EML       0.0974
     41 H11        -9.4715   22.8274   79.4564 H           1 EML       0.0280
     42 H12       -10.1621   20.9956   80.9550 H           1 EML       0.1036
     43 H13       -10.3470   21.4110   82.6148 H           1 EML       0.1036
     44 H14       -13.2951   20.2515   78.4588 H           1 EML       0.0281
     45 H15       -12.1915   21.6118   78.7560 H           1 EML       0.0281
     46 H16       -13.8700   21.6831   79.3337 H           1 EML       0.0281
     47 H17       -15.1974   21.6449   83.3642 H           1 EML       0.0616
     48 H18       -14.8674   21.6202   81.6422 H           1 EML       0.0616
     49 H19       -13.5735   22.8217   84.4595 H           1 EML       0.0288
     50 H20       -13.2093   23.5793   82.9055 H           1 EML       0.0288
     51 H21       -11.9148   22.9544   83.9423 H           1 EML       0.0288
     52 H22        -9.0193   29.3304   81.7759 H           1 EML       0.0384
     53 H23        -9.0368   30.5908   80.5361 H           1 EML       0.0384
     54 H24        -7.5425   30.2400   81.4325 H           1 EML       0.0384
     55 H25       -13.1735   20.2238   84.7055 H           1 EML       0.0288
     56 H26       -11.5102   20.5239   84.2271 H           1 EML       0.0288
     57 H27       -12.4571   19.3178   83.3627 H           1 EML       0.0288
@<TRIPOS>BOND
     1    15     1   1
     2     1    17   1
     3     1    20   2
     4     2    11   1
     5    21     2   1
     6    27     3   1
     7    14     4   1
     8    21     4   1
     9     7     5   2
    10     8     5   1
    11    13     6   2
    12     6    19   1
    13    16     7   1
    14     7    29   1
    15    13     8   1
    16     8    15   1
    17    18     9   1
    18     9    26   1
    19    10    12   1
    20    20    10   1
    21    11    13   1
    22    11    16   2
    23    17    12   2
    24    24    14   2
    25    15    19   2
    26    18    23   1
    27    25    18   1
    28    22    21   2
    29    24    22   1
    30    23    24   1
    31    25    27   1
    32    25    28   1
    33    25    30   1
    34     2    31   1
    35     3    32   1
    36     5    33   1
    37     9    34   1
    38     9    35   1
    39    10    36   1
    40    17    37   1
    41    18    38   1
    42    19    39   1
    43    20    40   1
    44    22    41   1
    45    23    42   1
    46    23    43   1
    47    26    44   1
    48    26    45   1
    49    26    46   1
    50    27    47   1
    51    27    48   1
    52    28    49   1
    53    28    50   1
    54    28    51   1
    55    29    52   1
    56    29    53   1
    57    29    54   1
    58    30    55   1
    59    30    56   1
    60    30    57   1
@<TRIPOS>SUBSTRUCTURE
     1  EML      1

