@<TRIPOS>MOLECULE
3myg_ligand_025
    57    60
SMALL
GAST_HUCK
****
This file was generated by PARSER (from files_GN.cpp)

@<TRIPOS>ATOM
      1 C1         -4.9677   30.3165   77.4412 C.2         1 EML       0.0195
      2 N1         -6.8078   28.5150   82.7950 N.pl3       1 EML      -0.2184
      3 O1        -11.2809   30.2069   87.8221 O.3         1 EML      -0.3892
      4 S1         -9.2510   27.6069   83.6398 S.3         1 EML       0.0206
      5 C2         -7.5717   29.4871   78.8540 C.2         1 EML       0.0730
      6 N2         -4.7375   29.4196   80.8995 N.2         1 EML      -0.3304
      7 C3         -8.5989   29.1467   79.6667 C.2         1 EML       0.0276
      8 N3         -6.3200   29.5261   79.3492 N.pl3       1 EML      -0.2136
      9 C4         -6.9793   29.2324   88.1781 C.3         1 EML      -0.0323
     10 N4         -4.8094   30.3760   75.2557 N.pl3       1 EML      -0.2209
     11 C5         -7.0891   28.8245   81.5090 C.2         1 EML       0.1947
     12 N5         -4.5556   31.5732   75.6728 N.2         1 EML      -0.2182
     13 C6         -6.0430   29.2310   80.6441 C.2         1 EML       0.1969
     14 N6         -9.1807   27.1579   85.2290 N.2         1 EML      -0.3061
     15 C7         -5.1659   29.8967   78.7689 C.2         1 EML       0.0797
     16 N7         -8.3344   28.8091   80.9503 N.2         1 EML      -0.2843
     17 C8         -4.6493   31.5939   77.0142 C.2         1 EML       0.0048
     18 N8         -8.0443   28.1625   88.2824 N.4         1 EML       0.2558
     19 C9         -4.1846   29.8420   79.7497 C.2         1 EML      -0.0220
     20 C10        -5.0676   29.5563   76.2888 C.2         1 EML       0.0562
     21 C11        -7.6195   28.0851   83.7627 C.2         1 EML       0.1479
     22 C12        -7.1681   27.9196   85.0042 C.2         1 EML      -0.0058
     23 C13        -7.8668   27.0803   87.2360 C.3         1 EML       0.0137
     24 C14        -8.0940   27.4272   85.8355 C.2         1 EML       0.0332
     25 C15        -9.4682   28.6663   88.5744 C.3         1 EML       0.0096
     26 C16        -5.5314   28.7543   88.4439 C.3         1 EML      -0.0244
     27 C17        -9.9983   29.6812   87.5026 C.3         1 EML       0.0892
     28 C18        -9.5039   29.3794   89.9781 C.3         1 EML      -0.0168
     29 C19        -9.9677   29.1828   79.1946 C.3         1 EML      -0.0245
     30 C20       -10.4866   27.4776   88.6862 C.3         1 EML      -0.0168
     31 H1         -5.8802   28.6336   83.0517 H           1 EML       0.2327
     32 H2        -11.4597   30.8699   87.1230 H           1 EML       0.2097
     33 H3         -7.7377   29.7354   77.9049 H           1 EML       0.0922
     34 H4         -7.1412   30.0047   88.9236 H           1 EML       0.0812
     35 H5         -7.0155   29.7270   87.2070 H           1 EML       0.0812
     36 H6         -4.7987   30.1169   74.3210 H           1 EML       0.2577
     37 H7         -4.5132   32.4172   77.6010 H           1 EML       0.0660
     38 H8         -7.8039   27.6763   89.1482 H           1 EML       0.2059
     39 H9         -3.2003   30.0807   79.6249 H           1 EML       0.0468
     40 H10        -5.2791   28.5606   76.2257 H           1 EML       0.0974
     41 H11        -6.2315   28.1015   85.2722 H           1 EML       0.0280
     42 H12        -8.4957   26.2269   87.4890 H           1 EML       0.1036
     43 H13        -6.8645   26.6602   87.3143 H           1 EML       0.1036
     44 H14        -4.8717   29.6077   88.6096 H           1 EML       0.0281
     45 H15        -5.1384   28.1971   87.5964 H           1 EML       0.0281
     46 H16        -5.5028   28.1225   89.3303 H           1 EML       0.0281
     47 H17        -9.3179   30.5245   87.3974 H           1 EML       0.0616
     48 H18       -10.1021   29.2223   86.5255 H           1 EML       0.0616
     49 H19       -10.5200   29.4976   90.3615 H           1 EML       0.0288
     50 H20        -9.0834   30.3845   89.9382 H           1 EML       0.0288
     51 H21        -8.9401   28.8011   90.7100 H           1 EML       0.0288
     52 H22       -10.6637   28.8439   79.9650 H           1 EML       0.0384
     53 H23       -10.0782   28.5361   78.3222 H           1 EML       0.0384
     54 H24       -10.2391   30.2039   78.9132 H           1 EML       0.0384
     55 H25       -11.4596   27.8098   89.0553 H           1 EML       0.0288
     56 H26       -10.1066   26.7199   89.3742 H           1 EML       0.0288
     57 H27       -10.6606   27.0084   87.7172 H           1 EML       0.0288
@<TRIPOS>BOND
     1    15     1   1
     2     1    17   1
     3     1    20   2
     4     2    11   1
     5    21     2   1
     6    27     3   1
     7    14     4   1
     8    21     4   1
     9     7     5   2
    10     8     5   1
    11    13     6   2
    12     6    19   1
    13    16     7   1
    14     7    29   1
    15    13     8   1
    16     8    15   1
    17    18     9   1
    18     9    26   1
    19    10    12   1
    20    20    10   1
    21    11    13   1
    22    11    16   2
    23    17    12   2
    24    24    14   2
    25    15    19   2
    26    18    23   1
    27    25    18   1
    28    22    21   2
    29    24    22   1
    30    23    24   1
    31    25    27   1
    32    25    28   1
    33    25    30   1
    34     2    31   1
    35     3    32   1
    36     5    33   1
    37     9    34   1
    38     9    35   1
    39    10    36   1
    40    17    37   1
    41    18    38   1
    42    19    39   1
    43    20    40   1
    44    22    41   1
    45    23    42   1
    46    23    43   1
    47    26    44   1
    48    26    45   1
    49    26    46   1
    50    27    47   1
    51    27    48   1
    52    28    49   1
    53    28    50   1
    54    28    51   1
    55    29    52   1
    56    29    53   1
    57    29    54   1
    58    30    55   1
    59    30    56   1
    60    30    57   1
@<TRIPOS>SUBSTRUCTURE
     1  EML      1

