@<TRIPOS>MOLECULE
3myg_ligand_079
    57    60
SMALL
GAST_HUCK
****
This file was generated by PARSER (from files_GN.cpp)

@<TRIPOS>ATOM
      1 C1         -3.7916   30.2386   92.3378 C.2         1 EML       0.0195
      2 N1         -1.5978   33.1325   87.4555 N.pl3       1 EML      -0.2184
      3 O1         -1.6565   33.5109   79.5107 O.3         1 EML      -0.3892
      4 S1         -1.6312   30.5866   86.5472 S.3         1 EML       0.0206
      5 C2         -2.1775   32.7977   91.5276 C.2         1 EML       0.0730
      6 N2         -3.3191   30.8680   88.8455 N.2         1 EML      -0.3304
      7 C3         -1.5222   33.8367   90.9656 C.2         1 EML       0.0276
      8 N3         -2.7031   31.8258   90.7453 N.pl3       1 EML      -0.2136
      9 C4         -4.2872   32.8334   82.5559 C.3         1 EML      -0.0323
     10 N4         -4.8845   29.2492   93.9816 N.pl3       1 EML      -0.2209
     11 C5         -1.8861   32.9333   88.7694 C.2         1 EML       0.1947
     12 N5         -3.7295   29.5896   94.4672 N.2         1 EML      -0.2182
     13 C6         -2.6079   31.8705   89.3913 C.2         1 EML       0.1969
     14 N6         -1.9289   30.5351   84.9275 N.2         1 EML      -0.3061
     15 C7         -3.4387   30.7389   91.0686 C.2         1 EML       0.0797
     16 N7         -1.4089   33.8710   89.6279 N.2         1 EML      -0.2843
     17 C8         -3.0201   30.1984   93.4990 C.2         1 EML       0.0048
     18 N8         -2.8318   32.7961   82.1454 N.4         1 EML       0.2558
     19 C9         -3.8171   30.1507   89.8619 C.2         1 EML      -0.0220
     20 C10        -4.9774   29.6012   92.6909 C.2         1 EML       0.0562
     21 C11        -1.7199   32.2863   86.4312 C.2         1 EML       0.1479
     22 C12        -1.7491   32.6809   85.1601 C.2         1 EML      -0.0058
     23 C13        -2.0570   31.7120   82.8514 C.3         1 EML       0.0137
     24 C14        -1.9342   31.6647   84.3104 C.2         1 EML       0.0332
     25 C15        -2.1622   34.1488   81.8615 C.3         1 EML       0.0096
     26 C16        -5.0453   31.4863   82.4352 C.3         1 EML      -0.0244
     27 C17        -2.3745   34.4322   80.3285 C.3         1 EML       0.0892
     28 C18        -0.6031   34.2094   82.0702 C.3         1 EML      -0.0168
     29 C19        -0.9364   34.9037   91.7515 C.3         1 EML      -0.0245
     30 C20        -2.7548   35.3480   82.6873 C.3         1 EML      -0.0168
     31 H1         -1.2567   34.0162   87.2306 H           1 EML       0.2327
     32 H2         -1.8909   33.7469   78.5851 H           1 EML       0.2097
     33 H3         -2.3017   32.7632   92.5126 H           1 EML       0.0922
     34 H4         -4.8387   33.5248   81.9196 H           1 EML       0.0812
     35 H5         -4.3825   33.1991   83.5824 H           1 EML       0.0812
     36 H6         -5.5784   28.7934   94.4873 H           1 EML       0.2577
     37 H7         -2.0564   30.5379   93.5985 H           1 EML       0.0660
     38 H8         -2.8877   32.4003   81.2077 H           1 EML       0.2059
     39 H9         -4.3880   29.3157   89.7489 H           1 EML       0.0468
     40 H10        -5.7891   29.4440   92.0953 H           1 EML       0.0974
     41 H11        -1.6608   33.6303   84.8854 H           1 EML       0.0280
     42 H12        -1.0551   31.6391   82.4475 H           1 EML       0.1036
     43 H13        -2.5112   30.7742   82.5222 H           1 EML       0.1036
     44 H14        -6.1092   31.6411   82.6129 H           1 EML       0.0281
     45 H15        -4.6839   30.7597   83.1655 H           1 EML       0.0281
     46 H16        -4.9182   31.0695   81.4289 H           1 EML       0.0281
     47 H17        -3.4269   34.3488   80.0571 H           1 EML       0.0616
     48 H18        -2.0440   35.4418   80.0683 H           1 EML       0.0616
     49 H19        -0.1856   35.1598   81.7163 H           1 EML       0.0288
     50 H20        -0.1087   33.4073   81.5126 H           1 EML       0.0288
     51 H21        -0.3539   34.1261   83.1257 H           1 EML       0.0288
     52 H22        -0.4230   35.6296   91.1166 H           1 EML       0.0384
     53 H23        -0.2097   34.4965   92.4583 H           1 EML       0.0384
     54 H24        -1.7079   35.4341   92.3128 H           1 EML       0.0384
     55 H25        -2.2058   36.2746   82.4973 H           1 EML       0.0288
     56 H26        -2.7062   35.1426   83.7524 H           1 EML       0.0288
     57 H27        -3.7962   35.5414   82.4341 H           1 EML       0.0288
@<TRIPOS>BOND
     1    15     1   1
     2     1    17   1
     3     1    20   2
     4     2    11   1
     5    21     2   1
     6    27     3   1
     7    14     4   1
     8    21     4   1
     9     7     5   2
    10     8     5   1
    11    13     6   2
    12     6    19   1
    13    16     7   1
    14     7    29   1
    15    13     8   1
    16     8    15   1
    17    18     9   1
    18     9    26   1
    19    10    12   1
    20    20    10   1
    21    11    13   1
    22    11    16   2
    23    17    12   2
    24    24    14   2
    25    15    19   2
    26    18    23   1
    27    25    18   1
    28    22    21   2
    29    24    22   1
    30    23    24   1
    31    25    27   1
    32    25    28   1
    33    25    30   1
    34     2    31   1
    35     3    32   1
    36     5    33   1
    37     9    34   1
    38     9    35   1
    39    10    36   1
    40    17    37   1
    41    18    38   1
    42    19    39   1
    43    20    40   1
    44    22    41   1
    45    23    42   1
    46    23    43   1
    47    26    44   1
    48    26    45   1
    49    26    46   1
    50    27    47   1
    51    27    48   1
    52    28    49   1
    53    28    50   1
    54    28    51   1
    55    29    52   1
    56    29    53   1
    57    29    54   1
    58    30    55   1
    59    30    56   1
    60    30    57   1
@<TRIPOS>SUBSTRUCTURE
     1  EML      1

