@<TRIPOS>MOLECULE
3n7a_ligand_003
    21    21
SMALL
GAST_HUCK
****
This file was generated by PARSER (from files_GN.cpp)

@<TRIPOS>ATOM
      1 C2         44.2952    5.4236   27.4712 C.3         1 FA1      -0.0257
      2 C3         44.7137    6.8175   28.0143 C.3         1 FA1       0.0989
      3 O3         46.0248    6.7622   28.5825 O.3         1 FA1      -0.3849
      4 C4         44.6567    7.8804   26.8787 C.3         1 FA1       0.1558
      5 O4         43.3166    8.3308   26.6880 O.3         1 FA1      -0.3559
      6 C5         45.1277    7.4075   25.5860 C.2         1 FA1       0.0179
      7 C6         45.3317    6.1140   25.2833 C.2         1 FA1      -0.0502
      8 C          46.4549    4.3949   26.5244 C.2         1 FA1       0.0192
      9 O1         47.2289    3.8960   25.5322 O.co2       1 FA1      -0.5675
     10 O30        44.3767    4.0050   25.5195 O.3         1 FA1      -0.4422
     11 O2         46.8746    4.1704   27.7911 O.co2       1 FA1      -0.5675
     12 C1         45.1321    5.0017   26.2130 C.3         1 FA1       0.0728
     13 H1         43.2372    5.4761   27.1927 H           1 FA1       0.0171
     14 H2         44.3724    4.6773   28.2676 H           1 FA1       0.0171
     15 H3         44.0348    7.1144   28.8197 H           1 FA1       0.0667
     16 H4         45.9642    6.0989   29.2979 H           1 FA1       0.2104
     17 H5         45.2595    8.7441   27.1768 H           1 FA1       0.1059
     18 H6         43.0573    8.7533   27.5352 H           1 FA1       0.2180
     19 H7         45.2409    8.0814   24.8630 H           1 FA1       0.1561
     20 H8         45.6569    5.9042   24.3656 H           1 FA1       0.0503
     21 H9         44.1538    3.3297   26.1957 H           1 FA1       0.1879
@<TRIPOS>BOND
     1     1     2   1
     2    12     1   1
     3     2     3   1
     4     2     4   1
     5     4     5   1
     6     6     4   1
     7     7     6   2
     8    12     7   1
     9     8     9  ar
    10     8    11  ar
    11     8    12   1
    12    12    10   1
    13     1    13   1
    14     1    14   1
    15     2    15   1
    16     3    16   1
    17     4    17   1
    18     5    18   1
    19     6    19   1
    20     7    20   1
    21    10    21   1
@<TRIPOS>SUBSTRUCTURE
     1  FA1      1

