@<TRIPOS>MOLECULE
3n7a_ligand_001
    21    21
SMALL
GAST_HUCK
****
This file was generated by PARSER (from files_GN.cpp)

@<TRIPOS>ATOM
      1 C2         44.8007    6.4464   24.9866 C.3         1 FA1      -0.0257
      2 C3         43.6237    7.2373   24.3152 C.3         1 FA1       0.0989
      3 O3         43.1278    6.4914   23.1964 O.3         1 FA1      -0.3849
      4 C4         42.4590    7.6050   25.2991 C.3         1 FA1       0.1558
      5 O4         42.5949    8.9705   25.6981 O.3         1 FA1      -0.3559
      6 C5         42.4206    6.7732   26.5012 C.2         1 FA1       0.0179
      7 C6         43.5350    6.3182   27.0867 C.2         1 FA1      -0.0502
      8 C          45.9359    5.7813   27.1464 C.2         1 FA1       0.0192
      9 O1         45.9390    4.4381   27.0204 O.co2       1 FA1      -0.5675
     10 O30        45.1241    7.9903   26.8435 O.3         1 FA1      -0.4422
     11 O2         46.8710    6.3177   27.9617 O.co2       1 FA1      -0.5675
     12 C1         44.8573    6.6170   26.5413 C.3         1 FA1       0.0728
     13 H1         45.7420    6.7679   24.5443 H           1 FA1       0.0171
     14 H2         44.6782    5.3826   24.7613 H           1 FA1       0.0171
     15 H3         44.0338    8.1638   23.8941 H           1 FA1       0.0667
     16 H4         43.1529    7.1140   22.4345 H           1 FA1       0.2104
     17 H5         41.4951    7.5326   24.7811 H           1 FA1       0.1059
     18 H6         41.9445    9.1079   26.4158 H           1 FA1       0.2180
     19 H7         41.5398    6.5121   26.8796 H           1 FA1       0.1561
     20 H8         43.4497    5.7118   27.8713 H           1 FA1       0.0503
     21 H9         46.0875    8.1100   26.6555 H           1 FA1       0.1879
@<TRIPOS>BOND
     1     1     2   1
     2    12     1   1
     3     2     3   1
     4     2     4   1
     5     4     5   1
     6     6     4   1
     7     7     6   2
     8    12     7   1
     9     8     9  ar
    10     8    11  ar
    11     8    12   1
    12    12    10   1
    13     1    13   1
    14     1    14   1
    15     2    15   1
    16     3    16   1
    17     4    17   1
    18     5    18   1
    19     6    19   1
    20     7    20   1
    21    10    21   1
@<TRIPOS>SUBSTRUCTURE
     1  FA1      1

