@<TRIPOS>MOLECULE
3n7a_ligand_020
    21    21
SMALL
GAST_HUCK
****
This file was generated by PARSER (from files_GN.cpp)

@<TRIPOS>ATOM
      1 C2         44.2177    5.8221   24.8700 C.3         1 FA1      -0.0257
      2 C3         43.4021    6.0324   26.1941 C.3         1 FA1       0.0989
      3 O3         44.2803    6.1077   27.3163 O.3         1 FA1      -0.3849
      4 C4         42.4778    7.2918   26.1743 C.3         1 FA1       0.1558
      5 O4         41.4442    7.1510   27.1434 O.3         1 FA1      -0.3559
      6 C5         41.9281    7.5396   24.8496 C.2         1 FA1       0.0179
      7 C6         42.6813    7.4139   23.7488 C.2         1 FA1      -0.0502
      8 C          44.9281    8.1642   24.1302 C.2         1 FA1       0.0192
      9 O1         45.3768    8.4040   25.3834 O.co2       1 FA1      -0.5675
     10 O30        44.4865    6.4731   22.5486 O.3         1 FA1      -0.4422
     11 O2         45.4547    8.9317   23.1483 O.co2       1 FA1      -0.5675
     12 C1         44.0802    6.9837   23.8224 C.3         1 FA1       0.0728
     13 H1         43.8598    4.8997   24.3995 H           1 FA1       0.0171
     14 H2         45.2774    5.6549   25.0951 H           1 FA1       0.0171
     15 H3         42.7782    5.1485   26.3537 H           1 FA1       0.0667
     16 H4         43.7052    6.0394   28.1091 H           1 FA1       0.2104
     17 H5         43.0637    8.1685   26.4578 H           1 FA1       0.1059
     18 H6         41.0072    8.0279   27.1708 H           1 FA1       0.2180
     19 H7         40.9612    7.7624   24.7529 H           1 FA1       0.1561
     20 H8         42.2529    7.5274   22.8574 H           1 FA1       0.0503
     21 H9         45.4646    6.4202   22.5806 H           1 FA1       0.1879
@<TRIPOS>BOND
     1     1     2   1
     2    12     1   1
     3     2     3   1
     4     2     4   1
     5     4     5   1
     6     6     4   1
     7     7     6   2
     8    12     7   1
     9     8     9  ar
    10     8    11  ar
    11     8    12   1
    12    12    10   1
    13     1    13   1
    14     1    14   1
    15     2    15   1
    16     3    16   1
    17     4    17   1
    18     5    18   1
    19     6    19   1
    20     7    20   1
    21    10    21   1
@<TRIPOS>SUBSTRUCTURE
     1  FA1      1

