@<TRIPOS>MOLECULE
3n7a_ligand_021
    21    21
SMALL
GAST_HUCK
****
This file was generated by PARSER (from files_GN.cpp)

@<TRIPOS>ATOM
      1 C2         45.9470    5.1859   26.3483 C.3         1 FA1      -0.0257
      2 C3         45.2242    5.8530   27.5680 C.3         1 FA1       0.0989
      3 O3         46.1982    6.3842   28.4704 O.3         1 FA1      -0.3849
      4 C4         44.2226    6.9911   27.1756 C.3         1 FA1       0.1558
      5 O4         42.9023    6.4699   27.0381 O.3         1 FA1      -0.3559
      6 C5         44.5542    7.6322   25.9144 C.2         1 FA1       0.0179
      7 C6         45.0072    6.9227   24.8671 C.2         1 FA1      -0.0502
      8 C          46.0456    4.9839   23.8017 C.2         1 FA1       0.0192
      9 O1         47.2588    4.3990   23.9289 O.co2       1 FA1      -0.5675
     10 O30        44.0117    4.7975   24.9391 O.3         1 FA1      -0.4422
     11 O2         45.5287    5.0717   22.5551 O.co2       1 FA1      -0.5675
     12 C1         45.2666    5.4822   24.9687 C.3         1 FA1       0.0728
     13 H1         46.0087    4.1048   26.5015 H           1 FA1       0.0171
     14 H2         46.9737    5.5555   26.3132 H           1 FA1       0.0171
     15 H3         44.6847    5.0768   28.1161 H           1 FA1       0.0667
     16 H4         45.7177    6.5261   29.3112 H           1 FA1       0.2104
     17 H5         44.1795    7.7436   27.9681 H           1 FA1       0.1059
     18 H6         42.6739    6.1134   27.9204 H           1 FA1       0.2180
     19 H7         44.4536    8.6180   25.8299 H           1 FA1       0.1561
     20 H8         45.2173    7.4141   24.0284 H           1 FA1       0.0503
     21 H9         44.2299    3.8444   25.0307 H           1 FA1       0.1879
@<TRIPOS>BOND
     1     1     2   1
     2    12     1   1
     3     2     3   1
     4     2     4   1
     5     4     5   1
     6     6     4   1
     7     7     6   2
     8    12     7   1
     9     8     9  ar
    10     8    11  ar
    11     8    12   1
    12    12    10   1
    13     1    13   1
    14     1    14   1
    15     2    15   1
    16     3    16   1
    17     4    17   1
    18     5    18   1
    19     6    19   1
    20     7    20   1
    21    10    21   1
@<TRIPOS>SUBSTRUCTURE
     1  FA1      1

