@<TRIPOS>MOLECULE
3n7a_ligand_017
    21    21
SMALL
GAST_HUCK
****
This file was generated by PARSER (from files_GN.cpp)

@<TRIPOS>ATOM
      1 C2         44.9736    7.3602   26.6795 C.3         1 FA1      -0.0257
      2 C3         45.6488    6.0839   27.2777 C.3         1 FA1       0.0989
      3 O3         46.3158    6.4471   28.4888 O.3         1 FA1      -0.3849
      4 C4         44.6738    4.8742   27.4932 C.3         1 FA1       0.1558
      5 O4         45.0068    3.8117   26.5986 O.3         1 FA1      -0.3559
      6 C5         43.2596    5.1733   27.3194 C.2         1 FA1       0.0179
      7 C6         42.8223    6.1827   26.5500 C.2         1 FA1      -0.0502
      8 C          43.0852    8.2337   25.2309 C.2         1 FA1       0.0192
      9 O1         42.1366    8.0881   24.2813 O.co2       1 FA1      -0.5675
     10 O30        44.2318    6.2638   24.6667 O.3         1 FA1      -0.4422
     11 O2         43.0474    9.3810   25.9532 O.co2       1 FA1      -0.5675
     12 C1         43.7474    7.0184   25.7837 C.3         1 FA1       0.0728
     13 H1         45.7177    7.9118   26.1020 H           1 FA1       0.0171
     14 H2         44.6611    8.0114   27.5042 H           1 FA1       0.0171
     15 H3         46.4394    5.7723   26.5927 H           1 FA1       0.0667
     16 H4         45.7815    6.0677   29.2164 H           1 FA1       0.2104
     17 H5         44.8118    4.4743   28.5021 H           1 FA1       0.1059
     18 H6         44.6956    4.0941   25.7115 H           1 FA1       0.2180
     19 H7         42.5907    4.6183   27.8026 H           1 FA1       0.1561
     20 H8         41.8459    6.3621   26.5205 H           1 FA1       0.0503
     21 H9         43.4307    5.9481   24.1979 H           1 FA1       0.1879
@<TRIPOS>BOND
     1     1     2   1
     2    12     1   1
     3     2     3   1
     4     2     4   1
     5     4     5   1
     6     6     4   1
     7     7     6   2
     8    12     7   1
     9     8     9  ar
    10     8    11  ar
    11     8    12   1
    12    12    10   1
    13     1    13   1
    14     1    14   1
    15     2    15   1
    16     3    16   1
    17     4    17   1
    18     5    18   1
    19     6    19   1
    20     7    20   1
    21    10    21   1
@<TRIPOS>SUBSTRUCTURE
     1  FA1      1

