@<TRIPOS>MOLECULE
3n7a_ligand_007
    21    21
SMALL
GAST_HUCK
****
This file was generated by PARSER (from files_GN.cpp)

@<TRIPOS>ATOM
      1 C2         43.5035    6.5634   24.8492 C.3         1 FA1      -0.0257
      2 C3         42.6056    6.9233   26.0591 C.3         1 FA1       0.0989
      3 O3         42.4098    5.7475   26.8482 O.3         1 FA1      -0.3849
      4 C4         43.2403    8.0875   26.8731 C.3         1 FA1       0.1558
      5 O4         42.9452    9.3281   26.2419 O.3         1 FA1      -0.3559
      6 C5         44.6836    7.9972   27.0253 C.2         1 FA1       0.0179
      7 C6         45.4660    7.1718   26.3100 C.2         1 FA1      -0.0502
      8 C          45.1195    4.8108   25.7812 C.2         1 FA1       0.0192
      9 O1         44.7784    3.7874   24.9631 O.co2       1 FA1      -0.5675
     10 O30        45.8043    6.3035   24.1517 O.3         1 FA1      -0.4422
     11 O2         45.7734    4.4755   26.9204 O.co2       1 FA1      -0.5675
     12 C1         44.9673    6.2151   25.3046 C.3         1 FA1       0.0728
     13 H1         43.5199    7.4257   24.1760 H           1 FA1       0.0171
     14 H2         43.0524    5.7388   24.2881 H           1 FA1       0.0171
     15 H3         41.6161    7.2374   25.7035 H           1 FA1       0.0667
     16 H4         42.3408    6.0208   27.7865 H           1 FA1       0.2104
     17 H5         42.7873    8.1215   27.8631 H           1 FA1       0.1059
     18 H6         41.9634    9.4012   26.2620 H           1 FA1       0.2180
     19 H7         45.1072    8.6153   27.6726 H           1 FA1       0.1561
     20 H8         46.4404    7.1939   26.5011 H           1 FA1       0.0503
     21 H9         45.7290    7.2226   23.8234 H           1 FA1       0.1879
@<TRIPOS>BOND
     1     1     2   1
     2    12     1   1
     3     2     3   1
     4     2     4   1
     5     4     5   1
     6     6     4   1
     7     7     6   2
     8    12     7   1
     9     8     9  ar
    10     8    11  ar
    11     8    12   1
    12    12    10   1
    13     1    13   1
    14     1    14   1
    15     2    15   1
    16     3    16   1
    17     4    17   1
    18     5    18   1
    19     6    19   1
    20     7    20   1
    21    10    21   1
@<TRIPOS>SUBSTRUCTURE
     1  FA1      1

