@<TRIPOS>MOLECULE
3n7a_ligand_015
    21    21
SMALL
GAST_HUCK
****
This file was generated by PARSER (from files_GN.cpp)

@<TRIPOS>ATOM
      1 C2         44.4475    4.1889   24.1804 C.3         1 FA1      -0.0257
      2 C3         44.8813    4.8469   25.5231 C.3         1 FA1       0.0989
      3 O3         46.0808    5.5999   25.3446 O.3         1 FA1      -0.3849
      4 C4         43.7709    5.7775   26.1008 C.3         1 FA1       0.1558
      5 O4         42.7601    5.0263   26.7757 O.3         1 FA1      -0.3559
      6 C5         43.1295    6.6035   25.0912 C.2         1 FA1       0.0179
      7 C6         43.1553    6.3484   23.7735 C.2         1 FA1      -0.0502
      8 C          44.7942    5.7033   22.1531 C.2         1 FA1       0.0192
      9 O1         45.9747    6.2600   22.5360 O.co2       1 FA1      -0.5675
     10 O30        42.7707    4.5110   22.4468 O.3         1 FA1      -0.4422
     11 O2         44.5000    5.7315   20.8352 O.co2       1 FA1      -0.5675
     12 C1         43.8144    5.1980   23.1537 C.3         1 FA1       0.0728
     13 H1         43.7238    3.4122   24.4240 H           1 FA1       0.0171
     14 H2         45.3081    3.6803   23.7380 H           1 FA1       0.0171
     15 H3         45.1060    4.0609   26.2481 H           1 FA1       0.0667
     16 H4         45.8518    6.2846   24.6826 H           1 FA1       0.2104
     17 H5         44.2333    6.4474   26.8363 H           1 FA1       0.1059
     18 H6         42.8327    5.2701   27.7273 H           1 FA1       0.2180
     19 H7         42.5921    7.3824   25.4047 H           1 FA1       0.1561
     20 H8         42.6800    6.9891   23.1772 H           1 FA1       0.0503
     21 H9         43.1828    3.7185   22.0445 H           1 FA1       0.1879
@<TRIPOS>BOND
     1     1     2   1
     2    12     1   1
     3     2     3   1
     4     2     4   1
     5     4     5   1
     6     6     4   1
     7     7     6   2
     8    12     7   1
     9     8     9  ar
    10     8    11  ar
    11     8    12   1
    12    12    10   1
    13     1    13   1
    14     1    14   1
    15     2    15   1
    16     3    16   1
    17     4    17   1
    18     5    18   1
    19     6    19   1
    20     7    20   1
    21    10    21   1
@<TRIPOS>SUBSTRUCTURE
     1  FA1      1

