@<TRIPOS>MOLECULE
3n7a_ligand_011
    21    21
SMALL
GAST_HUCK
****
This file was generated by PARSER (from files_GN.cpp)

@<TRIPOS>ATOM
      1 C2         44.2396    8.0631   26.4216 C.3         1 FA1      -0.0257
      2 C3         43.9640    6.9398   27.4526 C.3         1 FA1       0.0989
      3 O3         42.7519    6.2665   27.1058 O.3         1 FA1      -0.3849
      4 C4         45.1520    5.9323   27.5060 C.3         1 FA1       0.1558
      5 O4         46.2181    6.4287   28.3175 O.3         1 FA1      -0.3559
      6 C5         45.7034    5.6137   26.1951 C.2         1 FA1       0.0179
      7 C6         45.4678    6.3282   25.0837 C.2         1 FA1      -0.0502
      8 C          43.3904    7.1324   24.1777 C.2         1 FA1       0.0192
      9 O1         42.2209    7.7970   24.2794 O.co2       1 FA1      -0.5675
     10 O30        45.2683    8.5408   24.3202 O.3         1 FA1      -0.4422
     11 O2         43.5142    6.3120   23.1073 O.co2       1 FA1      -0.5675
     12 C1         44.5773    7.4914   25.0000 C.3         1 FA1       0.0728
     13 H1         45.0892    8.6458   26.7935 H           1 FA1       0.0171
     14 H2         43.3877    8.7434   26.3791 H           1 FA1       0.0171
     15 H3         43.8216    7.3908   28.4413 H           1 FA1       0.0667
     16 H4         42.5067    5.7826   27.9194 H           1 FA1       0.2104
     17 H5         44.8039    5.0021   27.9657 H           1 FA1       0.1059
     18 H6         45.9533    6.2177   29.2376 H           1 FA1       0.2180
     19 H7         46.3383    4.8459   26.1422 H           1 FA1       0.1561
     20 H8         45.9030    6.0144   24.2420 H           1 FA1       0.0503
     21 H9         45.2020    8.3501   23.3609 H           1 FA1       0.1879
@<TRIPOS>BOND
     1     1     2   1
     2    12     1   1
     3     2     3   1
     4     2     4   1
     5     4     5   1
     6     6     4   1
     7     7     6   2
     8    12     7   1
     9     8     9  ar
    10     8    11  ar
    11     8    12   1
    12    12    10   1
    13     1    13   1
    14     1    14   1
    15     2    15   1
    16     3    16   1
    17     4    17   1
    18     5    18   1
    19     6    19   1
    20     7    20   1
    21    10    21   1
@<TRIPOS>SUBSTRUCTURE
     1  FA1      1

