@<TRIPOS>MOLECULE
3n7a_ligand_002
    21    21
SMALL
GAST_HUCK
****
This file was generated by PARSER (from files_GN.cpp)

@<TRIPOS>ATOM
      1 C2         45.2325    6.6610   27.4828 C.3         1 FA1      -0.0257
      2 C3         44.6722    7.8732   26.6616 C.3         1 FA1       0.0989
      3 O3         45.6604    8.3565   25.7507 O.3         1 FA1      -0.3849
      4 C4         43.3472    7.5882   25.8927 C.3         1 FA1       0.1558
      5 O4         42.6420    8.8058   25.6247 O.3         1 FA1      -0.3559
      6 C5         42.5199    6.5955   26.5625 C.2         1 FA1       0.0179
      7 C6         43.0528    5.4841   27.0935 C.2         1 FA1      -0.0502
      8 C          45.0717    4.5376   26.1049 C.2         1 FA1       0.0192
      9 O1         46.1265    3.7048   26.2929 O.co2       1 FA1      -0.5675
     10 O30        44.7300    4.4855   28.4111 O.3         1 FA1      -0.4422
     11 O2         44.8241    4.8900   24.8214 O.co2       1 FA1      -0.5675
     12 C1         44.5006    5.2919   27.2461 C.3         1 FA1       0.0728
     13 H1         45.1267    6.9150   28.5427 H           1 FA1       0.0171
     14 H2         46.3069    6.5419   27.3053 H           1 FA1       0.0171
     15 H3         44.4859    8.6910   27.3648 H           1 FA1       0.0667
     16 H4         45.7770    7.6622   25.0720 H           1 FA1       0.2104
     17 H5         43.5954    7.1803   24.9105 H           1 FA1       0.1059
     18 H6         41.9898    8.9290   26.3436 H           1 FA1       0.2180
     19 H7         41.5430    6.7484   26.6363 H           1 FA1       0.1561
     20 H8         42.4364    4.8432   27.5380 H           1 FA1       0.0503
     21 H9         44.0359    4.7511   29.0424 H           1 FA1       0.1879
@<TRIPOS>BOND
     1     1     2   1
     2    12     1   1
     3     2     3   1
     4     2     4   1
     5     4     5   1
     6     6     4   1
     7     7     6   2
     8    12     7   1
     9     8     9  ar
    10     8    11  ar
    11     8    12   1
    12    12    10   1
    13     1    13   1
    14     1    14   1
    15     2    15   1
    16     3    16   1
    17     4    17   1
    18     5    18   1
    19     6    19   1
    20     7    20   1
    21    10    21   1
@<TRIPOS>SUBSTRUCTURE
     1  FA1      1

