@<TRIPOS>MOLECULE
3n7a_ligand_009
    21    21
SMALL
GAST_HUCK
****
This file was generated by PARSER (from files_GN.cpp)

@<TRIPOS>ATOM
      1 C2         42.4850    7.0164   26.0029 C.3         1 FA1      -0.0257
      2 C3         43.2518    7.5684   27.2381 C.3         1 FA1       0.0989
      3 O3         44.2677    6.6627   27.6442 O.3         1 FA1      -0.3849
      4 C4         43.8769    8.9615   26.9388 C.3         1 FA1       0.1558
      5 O4         42.9092    9.9871   27.1675 O.3         1 FA1      -0.3559
      6 C5         44.4152    9.1167   25.6024 C.2         1 FA1       0.0179
      7 C6         44.1795    8.2708   24.5884 C.2         1 FA1      -0.0502
      8 C          44.0791    5.8772   24.4051 C.2         1 FA1       0.0192
      9 O1         43.8115    5.0779   23.3447 O.co2       1 FA1      -0.5675
     10 O30        42.3285    7.2953   23.6162 O.3         1 FA1      -0.4422
     11 O2         45.1405    5.5412   25.1718 O.co2       1 FA1      -0.5675
     12 C1         43.2909    7.1130   24.6618 C.3         1 FA1       0.0728
     13 H1         41.5632    7.6018   25.9104 H           1 FA1       0.0171
     14 H2         42.1833    5.9868   26.2003 H           1 FA1       0.0171
     15 H3         42.5503    7.6671   28.0745 H           1 FA1       0.0667
     16 H4         43.8318    6.0944   28.3225 H           1 FA1       0.2104
     17 H5         44.6910    9.1318   27.6510 H           1 FA1       0.1059
     18 H6         42.0889    9.6770   26.7310 H           1 FA1       0.2180
     19 H7         44.9493    9.9346   25.4125 H           1 FA1       0.1561
     20 H8         44.6116    8.4733   23.7105 H           1 FA1       0.0503
     21 H9         42.8221    7.5779   22.8174 H           1 FA1       0.1879
@<TRIPOS>BOND
     1     1     2   1
     2    12     1   1
     3     2     3   1
     4     2     4   1
     5     4     5   1
     6     6     4   1
     7     7     6   2
     8    12     7   1
     9     8     9  ar
    10     8    11  ar
    11     8    12   1
    12    12    10   1
    13     1    13   1
    14     1    14   1
    15     2    15   1
    16     3    16   1
    17     4    17   1
    18     5    18   1
    19     6    19   1
    20     7    20   1
    21    10    21   1
@<TRIPOS>SUBSTRUCTURE
     1  FA1      1

