@<TRIPOS>MOLECULE
3n7a_ligand_025
    21    21
SMALL
GAST_HUCK
****
This file was generated by PARSER (from files_GN.cpp)

@<TRIPOS>ATOM
      1 C2         45.9015    6.4901   21.7164 C.3         1 FA1      -0.0257
      2 C3         45.8781    5.0504   21.1563 C.3         1 FA1       0.0989
      3 O3         46.7881    4.9147   20.0690 O.3         1 FA1      -0.3849
      4 C4         46.2290    4.0418   22.2827 C.3         1 FA1       0.1558
      5 O4         45.8759    2.7304   21.8457 O.3         1 FA1      -0.3559
      6 C5         45.5990    4.3375   23.5648 C.2         1 FA1       0.0179
      7 C6         45.0232    5.5132   23.8624 C.2         1 FA1      -0.0502
      8 C          45.1752    7.9617   23.5837 C.2         1 FA1       0.0192
      9 O1         45.2397    8.1107   24.9282 O.co2       1 FA1      -0.5675
     10 O30        43.5715    6.6092   22.4854 O.3         1 FA1      -0.4422
     11 O2         45.3527    9.0785   22.8423 O.co2       1 FA1      -0.5675
     12 C1         44.9285    6.6439   22.9348 C.3         1 FA1       0.0728
     13 H1         45.6224    7.1864   20.9195 H           1 FA1       0.0171
     14 H2         46.9291    6.7237   22.0192 H           1 FA1       0.0171
     15 H3         44.8710    4.8370   20.7845 H           1 FA1       0.0667
     16 H4         46.4543    5.5208   19.3756 H           1 FA1       0.2104
     17 H5         47.3088    4.0449   22.4507 H           1 FA1       0.1059
     18 H6         44.9073    2.7470   21.6788 H           1 FA1       0.2180
     19 H7         45.6391    3.6474   24.2788 H           1 FA1       0.1561
     20 H8         44.5467    5.5844   24.7346 H           1 FA1       0.0503
     21 H9         43.5060    7.2510   21.7534 H           1 FA1       0.1879
@<TRIPOS>BOND
     1     1     2   1
     2    12     1   1
     3     2     3   1
     4     2     4   1
     5     4     5   1
     6     6     4   1
     7     7     6   2
     8    12     7   1
     9     8     9  ar
    10     8    11  ar
    11     8    12   1
    12    12    10   1
    13     1    13   1
    14     1    14   1
    15     2    15   1
    16     3    16   1
    17     4    17   1
    18     5    18   1
    19     6    19   1
    20     7    20   1
    21    10    21   1
@<TRIPOS>SUBSTRUCTURE
     1  FA1      1

