@<TRIPOS>MOLECULE
3n86_ligand_016
    41    42
SMALL
GAST_HUCK
****
This file was generated by PARSER (from files_GN.cpp)

@<TRIPOS>ATOM
      1 OAA        24.3126   27.4993   -0.7035 O.2         1 RJP      -0.3845
      2 OAB        29.9602   30.0164   -0.6613 O.co2       1 RJP      -0.5717
      3 OAC        29.9355   28.0036    0.4632 O.co2       1 RJP      -0.5717
      4 OAD        28.6887   25.6220   -0.3187 O.3         1 RJP      -0.3854
      5 OAE        28.1321   25.2691   -3.9077 O.3         1 RJP      -0.3562
      6 OAF        30.9198   28.6128   -2.8261 O.3         1 RJP      -0.4539
      7 CAG        25.3571   28.4376   -2.5472 C.3         1 RJP       0.0698
      8 CAH        26.3744   27.6966   -3.4813 C.3         1 RJP       0.0498
      9 CAI        28.6011   28.2180   -2.6269 C.2         1 RJP      -0.0572
     10 CAJ        20.3555   24.1926   -2.2136 C.ar        1 RJP      -0.0772
     11 CAK        20.8527   24.8556   -1.0783 C.ar        1 RJP      -0.0755
     12 CAL        20.9238   24.4459   -3.4736 C.ar        1 RJP      -0.0755
     13 CAM        21.9162   25.7719   -1.1985 C.ar        1 RJP      -0.0413
     14 CAN        21.9886   25.3586   -3.5907 C.ar        1 RJP      -0.0413
     15 CAO        30.2914   26.4412   -1.9772 C.3         1 RJP      -0.0350
     16 NAP        23.5209   26.9152   -2.7156 N.am        1 RJP      -0.2336
     17 CAQ        24.3570   27.5764   -1.9256 C.2         1 RJP       0.2085
     18 CAR        29.9220   28.6617   -0.7184 C.2         1 RJP       0.0068
     19 CAS        27.6405   27.2897   -2.8414 C.2         1 RJP       0.0428
     20 CAT        22.5012   26.0366   -2.4616 C.ar        1 RJP       0.0662
     21 CAU        29.0867   25.5158   -1.6810 C.3         1 RJP       0.0972
     22 CAV        27.9027   25.8607   -2.6268 C.3         1 RJP       0.1616
     23 CAW        29.9172   27.9646   -2.0354 C.3         1 RJP       0.0564
     24 H1         29.4519   25.2898    0.1993 H           1 RJP       0.2103
     25 H2         27.8084   24.3450   -3.8090 H           1 RJP       0.2176
     26 H3         31.1691   27.9837   -3.5458 H           1 RJP       0.1842
     27 H4         24.8188   29.1808   -3.1408 H           1 RJP       0.0562
     28 H5         25.8961   29.0055   -1.7817 H           1 RJP       0.0562
     29 H6         26.6110   28.3519   -4.3285 H           1 RJP       0.0714
     30 H7         25.8926   26.8232   -3.9241 H           1 RJP       0.0714
     31 H8         28.3802   29.1708   -2.8390 H           1 RJP       0.0428
     32 H9         19.5858   23.5273   -2.1261 H           1 RJP       0.0487
     33 H10        20.4335   24.6762   -0.1602 H           1 RJP       0.0577
     34 H11        20.5605   23.9722   -4.3083 H           1 RJP       0.0577
     35 H12        22.2373   26.2492   -0.3572 H           1 RJP       0.0502
     36 H13        22.3821   25.5289   -4.5208 H           1 RJP       0.0502
     37 H14        30.6845   26.1268   -2.9503 H           1 RJP       0.0144
     38 H15        31.0864   26.2670   -1.2434 H           1 RJP       0.0144
     39 H16        23.6871   27.0525   -3.6675 H           1 RJP       0.2257
     40 H17        29.3893   24.4757   -1.8408 H           1 RJP       0.0662
     41 H18        27.0034   25.4070   -2.2083 H           1 RJP       0.1053
@<TRIPOS>BOND
     1    17     1   2
     2    18     2  ar
     3    18     3  ar
     4    21     4   1
     5    22     5   1
     6    23     6   1
     7     8     7   1
     8     7    17   1
     9    19     8   1
    10    19     9   2
    11     9    23   1
    12    11    10  ar
    13    12    10  ar
    14    13    11  ar
    15    14    12  ar
    16    20    13  ar
    17    20    14  ar
    18    15    21   1
    19    23    15   1
    20    17    16  am
    21    16    20   1
    22    23    18   1
    23    19    22   1
    24    21    22   1
    25     4    24   1
    26     5    25   1
    27     6    26   1
    28     7    27   1
    29     7    28   1
    30     8    29   1
    31     8    30   1
    32     9    31   1
    33    10    32   1
    34    11    33   1
    35    12    34   1
    36    13    35   1
    37    14    36   1
    38    15    37   1
    39    15    38   1
    40    16    39   1
    41    21    40   1
    42    22    41   1
@<TRIPOS>SUBSTRUCTURE
     1  RJP      7

