@<TRIPOS>MOLECULE
3n86_ligand_007
    41    42
SMALL
GAST_HUCK
****
This file was generated by PARSER (from files_GN.cpp)

@<TRIPOS>ATOM
      1 OAA        24.5779   26.1274   -1.2155 O.2         1 RJP      -0.3845
      2 OAB        18.9403   28.9512    0.0810 O.co2       1 RJP      -0.5717
      3 OAC        20.1244   28.2448    1.9215 O.co2       1 RJP      -0.5717
      4 OAD        17.0166   24.6368   -1.9922 O.3         1 RJP      -0.3854
      5 OAE        19.7153   23.4328   -2.3774 O.3         1 RJP      -0.3562
      6 OAF        19.2809   25.6531    1.4771 O.3         1 RJP      -0.4539
      7 CAG        22.7650   26.4299   -2.6259 C.3         1 RJP       0.0698
      8 CAH        22.0057   25.1693   -2.0643 C.3         1 RJP       0.0498
      9 CAI        20.5946   26.1965   -0.3655 C.2         1 RJP      -0.0572
     10 CAJ        29.0625   28.2839   -2.7763 C.ar        1 RJP      -0.0772
     11 CAK        28.6108   27.0559   -2.2584 C.ar        1 RJP      -0.0755
     12 CAL        28.1497   29.1542   -3.3993 C.ar        1 RJP      -0.0755
     13 CAM        27.2480   26.7133   -2.3468 C.ar        1 RJP      -0.0413
     14 CAN        26.7855   28.8099   -3.4806 C.ar        1 RJP      -0.0413
     15 CAO        18.0770   26.2614   -0.5201 C.3         1 RJP      -0.0350
     16 NAP        24.9638   27.3253   -3.0457 N.am        1 RJP      -0.2336
     17 CAQ        24.1830   26.5484   -2.2955 C.2         1 RJP       0.2085
     18 CAR        19.3699   27.9205    0.8472 C.2         1 RJP       0.0068
     19 CAS        20.6784   25.4298   -1.4779 C.2         1 RJP       0.0428
     20 CAT        26.3061   27.6002   -2.9250 C.ar        1 RJP       0.0662
     21 CAU        18.1844   24.8807   -1.2087 C.3         1 RJP       0.0972
     22 CAV        19.4791   24.8132   -2.0762 C.3         1 RJP       0.1616
     23 CAW        19.3513   26.5233    0.3421 C.3         1 RJP       0.0564
     24 H1         17.0233   23.6725   -2.1755 H           1 RJP       0.2103
     25 H2         19.6776   22.9635   -1.5184 H           1 RJP       0.2176
     26 H3         20.0447   25.8880    2.0455 H           1 RJP       0.1842
     27 H4         22.2890   27.3523   -2.2922 H           1 RJP       0.0562
     28 H5         22.6707   26.4152   -3.7180 H           1 RJP       0.0562
     29 H6         22.5862   24.6637   -1.2899 H           1 RJP       0.0714
     30 H7         21.9378   24.4493   -2.8869 H           1 RJP       0.0714
     31 H8         21.4421   26.5053    0.0572 H           1 RJP       0.0428
     32 H9         30.0517   28.5353   -2.7076 H           1 RJP       0.0487
     33 H10        29.2740   26.4087   -1.8275 H           1 RJP       0.0577
     34 H11        28.4841   30.0374   -3.7944 H           1 RJP       0.0577
     35 H12        26.9613   25.7939   -2.0120 H           1 RJP       0.0502
     36 H13        26.1404   29.4578   -3.9415 H           1 RJP       0.0502
     37 H14        17.1797   26.2984    0.1059 H           1 RJP       0.0144
     38 H15        17.9729   27.0238   -1.2986 H           1 RJP       0.0144
     39 H16        24.5151   27.7781   -3.7765 H           1 RJP       0.2257
     40 H17        18.2208   24.1108   -0.4306 H           1 RJP       0.0662
     41 H18        19.2912   25.3238   -3.0244 H           1 RJP       0.1053
@<TRIPOS>BOND
     1    17     1   2
     2    18     2  ar
     3    18     3  ar
     4    21     4   1
     5    22     5   1
     6    23     6   1
     7     8     7   1
     8     7    17   1
     9    19     8   1
    10    19     9   2
    11     9    23   1
    12    11    10  ar
    13    12    10  ar
    14    13    11  ar
    15    14    12  ar
    16    20    13  ar
    17    20    14  ar
    18    15    21   1
    19    23    15   1
    20    17    16  am
    21    16    20   1
    22    23    18   1
    23    19    22   1
    24    21    22   1
    25     4    24   1
    26     5    25   1
    27     6    26   1
    28     7    27   1
    29     7    28   1
    30     8    29   1
    31     8    30   1
    32     9    31   1
    33    10    32   1
    34    11    33   1
    35    12    34   1
    36    13    35   1
    37    14    36   1
    38    15    37   1
    39    15    38   1
    40    16    39   1
    41    21    40   1
    42    22    41   1
@<TRIPOS>SUBSTRUCTURE
     1  RJP      7

