@<TRIPOS>MOLECULE
3n86_ligand_008
    41    42
SMALL
GAST_HUCK
****
This file was generated by PARSER (from files_GN.cpp)

@<TRIPOS>ATOM
      1 OAA        27.4002   28.8228   -2.6623 O.2         1 RJP      -0.3845
      2 OAB        31.2499   25.2837    2.8932 O.co2       1 RJP      -0.5717
      3 OAC        29.2484   24.2889    2.3939 O.co2       1 RJP      -0.5717
      4 OAD        29.0864   23.8868   -2.7532 O.3         1 RJP      -0.3854
      5 OAE        29.4392   26.6840   -3.1948 O.3         1 RJP      -0.3562
      6 OAF        32.0340   24.9746    0.2076 O.3         1 RJP      -0.4539
      7 CAG        29.5938   29.3643   -2.1079 C.3         1 RJP       0.0698
      8 CAH        29.4646   28.5302   -0.7906 C.3         1 RJP       0.0498
      9 CAI        30.3680   26.5458    0.2868 C.2         1 RJP      -0.0572
     10 CAJ        26.0244   30.9234   -7.3841 C.ar        1 RJP      -0.0772
     11 CAK        27.3649   31.3416   -7.3429 C.ar        1 RJP      -0.0755
     12 CAL        25.4876   30.2116   -6.2991 C.ar        1 RJP      -0.0755
     13 CAM        28.1653   31.0397   -6.2286 C.ar        1 RJP      -0.0413
     14 CAN        26.2893   29.9067   -5.1812 C.ar        1 RJP      -0.0413
     15 CAO        29.8221   24.1874   -0.4291 C.3         1 RJP      -0.0350
     16 NAP        28.5278   30.0952   -4.1088 N.am        1 RJP      -0.2336
     17 CAQ        28.4244   29.4098   -2.9789 C.2         1 RJP       0.2085
     18 CAR        30.4367   24.7680    1.9465 C.2         1 RJP       0.0068
     19 CAS        29.7856   27.0853   -0.8157 C.2         1 RJP       0.0428
     20 CAT        27.6444   30.3159   -5.1310 C.ar        1 RJP       0.0662
     21 CAU        29.8045   24.7501   -1.8655 C.3         1 RJP       0.0972
     22 CAV        29.2339   26.1992   -1.8660 C.3         1 RJP       0.1616
     23 CAW        30.6426   25.1262    0.5131 C.3         1 RJP       0.0564
     24 H1         28.1286   24.0040   -2.5754 H           1 RJP       0.2103
     25 H2         30.3840   26.5225   -3.4246 H           1 RJP       0.2176
     26 H3         32.3298   24.1440    0.6349 H           1 RJP       0.1842
     27 H4         30.4576   28.9915   -2.6672 H           1 RJP       0.0562
     28 H5         29.8086   30.4019   -1.8309 H           1 RJP       0.0562
     29 H6         28.4544   28.6339   -0.4050 H           1 RJP       0.0714
     30 H7         30.1025   29.0418   -0.0640 H           1 RJP       0.0714
     31 H8         30.7182   27.1642    0.9859 H           1 RJP       0.0428
     32 H9         25.4402   31.1564   -8.1910 H           1 RJP       0.0487
     33 H10        27.7480   31.8874   -8.1138 H           1 RJP       0.0577
     34 H11        24.5086   29.9200   -6.3222 H           1 RJP       0.0577
     35 H12        29.1409   31.3517   -6.2270 H           1 RJP       0.0502
     36 H13        25.8583   29.3920   -4.4132 H           1 RJP       0.0502
     37 H14        30.2599   23.1852   -0.4329 H           1 RJP       0.0144
     38 H15        28.7860   24.1018   -0.0830 H           1 RJP       0.0144
     39 H16        29.3948   30.5058   -4.2454 H           1 RJP       0.2257
     40 H17        30.8331   24.7821   -2.2337 H           1 RJP       0.0662
     41 H18        28.1531   26.1484   -1.7142 H           1 RJP       0.1053
@<TRIPOS>BOND
     1    17     1   2
     2    18     2  ar
     3    18     3  ar
     4    21     4   1
     5    22     5   1
     6    23     6   1
     7     8     7   1
     8     7    17   1
     9    19     8   1
    10    19     9   2
    11     9    23   1
    12    11    10  ar
    13    12    10  ar
    14    13    11  ar
    15    14    12  ar
    16    20    13  ar
    17    20    14  ar
    18    15    21   1
    19    23    15   1
    20    17    16  am
    21    16    20   1
    22    23    18   1
    23    19    22   1
    24    21    22   1
    25     4    24   1
    26     5    25   1
    27     6    26   1
    28     7    27   1
    29     7    28   1
    30     8    29   1
    31     8    30   1
    32     9    31   1
    33    10    32   1
    34    11    33   1
    35    12    34   1
    36    13    35   1
    37    14    36   1
    38    15    37   1
    39    15    38   1
    40    16    39   1
    41    21    40   1
    42    22    41   1
@<TRIPOS>SUBSTRUCTURE
     1  RJP      7

