@<TRIPOS>MOLECULE
3n86_ligand_024
    41    42
SMALL
GAST_HUCK
****
This file was generated by PARSER (from files_GN.cpp)

@<TRIPOS>ATOM
      1 OAA        29.2631   22.4736   -1.3901 O.2         1 RJP      -0.3845
      2 OAB        26.1106   29.7767   -1.8309 O.co2       1 RJP      -0.5717
      3 OAC        25.8651   27.4882   -1.9433 O.co2       1 RJP      -0.5717
      4 OAD        29.0362   28.6701   -0.5861 O.3         1 RJP      -0.3854
      5 OAE        31.4226   27.6283   -3.1468 O.3         1 RJP      -0.3562
      6 OAF        27.1938   29.0439   -4.5494 O.3         1 RJP      -0.4539
      7 CAG        28.6313   24.1972   -2.7775 C.3         1 RJP       0.0698
      8 CAH        29.6127   25.2522   -3.3891 C.3         1 RJP       0.0498
      9 CAI        28.1339   27.1869   -3.5098 C.2         1 RJP      -0.0572
     10 CAJ        30.3903   23.8819    3.5048 C.ar        1 RJP      -0.0772
     11 CAK        29.8109   22.8104    2.8076 C.ar        1 RJP      -0.0755
     12 CAL        30.5354   25.1358    2.8831 C.ar        1 RJP      -0.0755
     13 CAM        29.3657   22.9930    1.4868 C.ar        1 RJP      -0.0413
     14 CAN        30.1077   25.3099    1.5543 C.ar        1 RJP      -0.0413
     15 CAO        28.8576   29.5073   -2.8609 C.3         1 RJP      -0.0350
     16 NAP        29.1364   24.5051   -0.4471 N.am        1 RJP      -0.2336
     17 CAQ        29.0363   23.6828   -1.4832 C.2         1 RJP       0.2085
     18 CAR        26.5378   28.5954   -2.3412 C.2         1 RJP       0.0068
     19 CAS        29.2878   26.6436   -3.0573 C.2         1 RJP       0.0428
     20 CAT        29.5322   24.2394    0.8312 C.ar        1 RJP       0.0662
     21 CAU        29.7635   28.8313   -1.8056 C.3         1 RJP       0.0972
     22 CAV        30.2688   27.4489   -2.3192 C.3         1 RJP       0.1616
     23 CAW        27.6853   28.5632   -3.2932 C.3         1 RJP       0.0564
     24 H1         29.6822   28.3337    0.0668 H           1 RJP       0.2103
     25 H2         31.0996   27.5819   -4.0756 H           1 RJP       0.2176
     26 H3         26.9074   29.9689   -4.3883 H           1 RJP       0.1842
     27 H4         28.5364   23.3731   -3.4950 H           1 RJP       0.0562
     28 H5         27.6306   24.6223   -2.6624 H           1 RJP       0.0562
     29 H6         29.5937   25.1530   -4.4775 H           1 RJP       0.0714
     30 H7         30.6337   24.9924   -3.0934 H           1 RJP       0.0714
     31 H8         27.5047   26.5967   -4.0037 H           1 RJP       0.0428
     32 H9         30.6911   23.7553    4.4758 H           1 RJP       0.0487
     33 H10        29.6987   21.9043    3.2673 H           1 RJP       0.0577
     34 H11        30.9420   25.9214    3.3971 H           1 RJP       0.0577
     35 H12        28.9098   22.2109    1.0203 H           1 RJP       0.0502
     36 H13        30.2315   26.2237    1.1163 H           1 RJP       0.0502
     37 H14        29.4785   29.7439   -3.7347 H           1 RJP       0.0144
     38 H15        28.4812   30.4547   -2.4651 H           1 RJP       0.0144
     39 H16        28.9900   25.4454   -0.6443 H           1 RJP       0.2257
     40 H17        30.6127   29.4890   -1.5942 H           1 RJP       0.0662
     41 H18        30.6189   26.8845   -1.4500 H           1 RJP       0.1053
@<TRIPOS>BOND
     1    17     1   2
     2    18     2  ar
     3    18     3  ar
     4    21     4   1
     5    22     5   1
     6    23     6   1
     7     8     7   1
     8     7    17   1
     9    19     8   1
    10    19     9   2
    11     9    23   1
    12    11    10  ar
    13    12    10  ar
    14    13    11  ar
    15    14    12  ar
    16    20    13  ar
    17    20    14  ar
    18    15    21   1
    19    23    15   1
    20    17    16  am
    21    16    20   1
    22    23    18   1
    23    19    22   1
    24    21    22   1
    25     4    24   1
    26     5    25   1
    27     6    26   1
    28     7    27   1
    29     7    28   1
    30     8    29   1
    31     8    30   1
    32     9    31   1
    33    10    32   1
    34    11    33   1
    35    12    34   1
    36    13    35   1
    37    14    36   1
    38    15    37   1
    39    15    38   1
    40    16    39   1
    41    21    40   1
    42    22    41   1
@<TRIPOS>SUBSTRUCTURE
     1  RJP      7

