@<TRIPOS>MOLECULE
3n86_ligand_009
    41    42
SMALL
GAST_HUCK
****
This file was generated by PARSER (from files_GN.cpp)

@<TRIPOS>ATOM
      1 OAA        24.4432   26.7041   -1.0598 O.2         1 RJP      -0.3845
      2 OAB        27.0552   33.2012   -4.8869 O.co2       1 RJP      -0.5717
      3 OAC        26.6089   32.8551   -2.6464 O.co2       1 RJP      -0.5717
      4 OAD        30.7052   30.0288   -1.3003 O.3         1 RJP      -0.3854
      5 OAE        29.3351   27.5755   -2.3193 O.3         1 RJP      -0.3562
      6 OAF        28.7183   31.0906   -5.0768 O.3         1 RJP      -0.4539
      7 CAG        25.0312   28.3697   -2.5257 C.3         1 RJP       0.0698
      8 CAH        26.4779   27.8849   -2.8599 C.3         1 RJP       0.0498
      9 CAI        27.2279   30.0386   -3.7073 C.2         1 RJP      -0.0572
     10 CAJ        20.1867   23.9704   -2.3545 C.ar        1 RJP      -0.0772
     11 CAK        20.6927   24.2676   -3.6310 C.ar        1 RJP      -0.0755
     12 CAL        20.7065   24.6288   -1.2246 C.ar        1 RJP      -0.0755
     13 CAM        21.7226   25.2103   -3.7785 C.ar        1 RJP      -0.0413
     14 CAN        21.7234   25.5879   -1.3773 C.ar        1 RJP      -0.0413
     15 CAO        29.1367   31.3132   -2.6522 C.3         1 RJP      -0.0350
     16 NAP        23.1917   26.8512   -2.8988 N.am        1 RJP      -0.2336
     17 CAQ        24.1676   27.2768   -2.1075 C.2         1 RJP       0.2085
     18 CAR        27.2409   32.4531   -3.7778 C.2         1 RJP       0.0068
     19 CAS        27.4806   28.9596   -2.9358 C.2         1 RJP       0.0428
     20 CAT        22.2525   25.8904   -2.6568 C.ar        1 RJP       0.0662
     21 CAU        29.7995   29.9389   -2.4044 C.3         1 RJP       0.0972
     22 CAV        28.7161   28.8530   -2.1367 C.3         1 RJP       0.1616
     23 CAW        28.0769   31.2215   -3.7987 C.3         1 RJP       0.0564
     24 H1         31.2454   30.8359   -1.4699 H           1 RJP       0.2103
     25 H2         29.7802   27.6137   -3.1931 H           1 RJP       0.2176
     26 H3         29.6232   31.4472   -4.9726 H           1 RJP       0.1842
     27 H4         24.6115   28.8688   -3.4056 H           1 RJP       0.0562
     28 H5         25.0640   29.1184   -1.7287 H           1 RJP       0.0562
     29 H6         26.4580   27.3627   -3.8221 H           1 RJP       0.0714
     30 H7         26.7800   27.1530   -2.1033 H           1 RJP       0.0714
     31 H8         26.4337   30.0100   -4.3082 H           1 RJP       0.0428
     32 H9         19.4404   23.2844   -2.2436 H           1 RJP       0.0487
     33 H10        20.3121   23.7966   -4.4562 H           1 RJP       0.0577
     34 H11        20.3349   24.4184   -0.2954 H           1 RJP       0.0577
     35 H12        22.0824   25.4060   -4.7158 H           1 RJP       0.0502
     36 H13        22.0479   26.0907   -0.5467 H           1 RJP       0.0502
     37 H14        29.9000   32.0602   -2.8975 H           1 RJP       0.0144
     38 H15        28.6642   31.6185   -1.7121 H           1 RJP       0.0144
     39 H16        23.1918   27.2289   -3.7939 H           1 RJP       0.2257
     40 H17        30.3840   29.6595   -3.2873 H           1 RJP       0.0662
     41 H18        28.4308   28.9163   -1.0859 H           1 RJP       0.1053
@<TRIPOS>BOND
     1    17     1   2
     2    18     2  ar
     3    18     3  ar
     4    21     4   1
     5    22     5   1
     6    23     6   1
     7     8     7   1
     8     7    17   1
     9    19     8   1
    10    19     9   2
    11     9    23   1
    12    11    10  ar
    13    12    10  ar
    14    13    11  ar
    15    14    12  ar
    16    20    13  ar
    17    20    14  ar
    18    15    21   1
    19    23    15   1
    20    17    16  am
    21    16    20   1
    22    23    18   1
    23    19    22   1
    24    21    22   1
    25     4    24   1
    26     5    25   1
    27     6    26   1
    28     7    27   1
    29     7    28   1
    30     8    29   1
    31     8    30   1
    32     9    31   1
    33    10    32   1
    34    11    33   1
    35    12    34   1
    36    13    35   1
    37    14    36   1
    38    15    37   1
    39    15    38   1
    40    16    39   1
    41    21    40   1
    42    22    41   1
@<TRIPOS>SUBSTRUCTURE
     1  RJP      7

