@<TRIPOS>MOLECULE
3n86_ligand_022
    41    42
SMALL
GAST_HUCK
****
This file was generated by PARSER (from files_GN.cpp)

@<TRIPOS>ATOM
      1 OAA        29.5792   31.4653    0.7395 O.2         1 RJP      -0.3845
      2 OAB        25.3063   27.1862   -2.1366 O.co2       1 RJP      -0.5717
      3 OAC        24.0511   28.6063   -3.4553 O.co2       1 RJP      -0.5717
      4 OAD        27.4000   30.7804   -6.7237 O.3         1 RJP      -0.3854
      5 OAE        28.7087   32.2714   -4.5993 O.3         1 RJP      -0.3562
      6 OAF        27.5238   27.8103   -3.5229 O.3         1 RJP      -0.4539
      7 CAG        29.0905   32.2179   -1.3802 C.3         1 RJP       0.0698
      8 CAH        27.6304   32.1279   -1.9072 C.3         1 RJP       0.0498
      9 CAI        26.9221   29.8894   -2.6009 C.2         1 RJP      -0.0572
     10 CAJ        30.4957   26.2432    0.9639 C.ar        1 RJP      -0.0772
     11 CAK        29.8945   26.3084   -0.3051 C.ar        1 RJP      -0.0755
     12 CAL        30.8148   27.4268    1.6506 C.ar        1 RJP      -0.0755
     13 CAM        29.6141   27.5612   -0.8760 C.ar        1 RJP      -0.0413
     14 CAN        30.5264   28.6769    1.0716 C.ar        1 RJP      -0.0413
     15 CAO        26.3909   29.3358   -5.0124 C.3         1 RJP      -0.0350
     16 NAP        29.6054   29.9184   -0.8783 N.am        1 RJP      -0.2336
     17 CAQ        29.4479   31.1618   -0.4466 C.2         1 RJP       0.2085
     18 CAR        25.2705   28.1734   -3.0610 C.2         1 RJP       0.0068
     19 CAS        27.4019   31.1086   -2.9445 C.2         1 RJP       0.0428
     20 CAT        29.9075   28.7641   -0.2013 C.ar        1 RJP       0.0662
     21 CAU        27.5224   30.3244   -5.3697 C.3         1 RJP       0.0972
     22 CAV        27.5278   31.5089   -4.3574 C.3         1 RJP       0.1616
     23 CAW        26.5194   28.8309   -3.5357 C.3         1 RJP       0.0564
     24 H1         26.6403   31.3999   -6.7217 H           1 RJP       0.2103
     25 H2         29.4536   31.6304   -4.5975 H           1 RJP       0.2176
     26 H3         28.3731   28.2447   -3.7447 H           1 RJP       0.1842
     27 H4         29.1966   33.1887   -0.8832 H           1 RJP       0.0562
     28 H5         29.8088   32.2187   -2.2091 H           1 RJP       0.0562
     29 H6         27.3614   33.1085   -2.3045 H           1 RJP       0.0714
     30 H7         26.9636   31.9750   -1.0555 H           1 RJP       0.0714
     31 H8         26.8836   29.6595   -1.6288 H           1 RJP       0.0428
     32 H9         30.6988   25.3350    1.3881 H           1 RJP       0.0487
     33 H10        29.6712   25.4490   -0.8097 H           1 RJP       0.0577
     34 H11        31.2537   27.3770    2.5704 H           1 RJP       0.0577
     35 H12        29.1984   27.5807   -1.8024 H           1 RJP       0.0502
     36 H13        30.7946   29.5132    1.5827 H           1 RJP       0.0502
     37 H14        26.4270   28.4852   -5.7026 H           1 RJP       0.0144
     38 H15        25.4442   29.8564   -5.1571 H           1 RJP       0.0144
     39 H16        29.4260   29.7948   -1.8245 H           1 RJP       0.2257
     40 H17        28.4785   29.8005   -5.3024 H           1 RJP       0.0662
     41 H18        26.6834   32.1637   -4.5902 H           1 RJP       0.1053
@<TRIPOS>BOND
     1    17     1   2
     2    18     2  ar
     3    18     3  ar
     4    21     4   1
     5    22     5   1
     6    23     6   1
     7     8     7   1
     8     7    17   1
     9    19     8   1
    10    19     9   2
    11     9    23   1
    12    11    10  ar
    13    12    10  ar
    14    13    11  ar
    15    14    12  ar
    16    20    13  ar
    17    20    14  ar
    18    15    21   1
    19    23    15   1
    20    17    16  am
    21    16    20   1
    22    23    18   1
    23    19    22   1
    24    21    22   1
    25     4    24   1
    26     5    25   1
    27     6    26   1
    28     7    27   1
    29     7    28   1
    30     8    29   1
    31     8    30   1
    32     9    31   1
    33    10    32   1
    34    11    33   1
    35    12    34   1
    36    13    35   1
    37    14    36   1
    38    15    37   1
    39    15    38   1
    40    16    39   1
    41    21    40   1
    42    22    41   1
@<TRIPOS>SUBSTRUCTURE
     1  RJP      7

