@<TRIPOS>MOLECULE
3n86_ligand_002
    41    42
SMALL
GAST_HUCK
****
This file was generated by PARSER (from files_GN.cpp)

@<TRIPOS>ATOM
      1 OAA        28.4883   26.0166   -3.7281 O.2         1 RJP      -0.3845
      2 OAB        30.0994   19.8315    1.6488 O.co2       1 RJP      -0.5717
      3 OAC        31.4588   21.2547    0.4474 O.co2       1 RJP      -0.5717
      4 OAD        31.1917   23.7987    3.2931 O.3         1 RJP      -0.3854
      5 OAE        31.2755   25.6764    0.9965 O.3         1 RJP      -0.3562
      6 OAF        27.8859   21.2681    0.8981 O.3         1 RJP      -0.4539
      7 CAG        28.6090   25.7416   -1.4522 C.3         1 RJP       0.0698
      8 CAH        29.8914   24.8625   -1.4003 C.3         1 RJP       0.0498
      9 CAI        29.1682   22.9047   -0.1580 C.2         1 RJP      -0.0572
     10 CAJ        27.7006   30.7778   -5.5360 C.ar        1 RJP      -0.0772
     11 CAK        28.5055   31.0665   -4.4190 C.ar        1 RJP      -0.0755
     12 CAL        27.0868   29.5215   -5.6445 C.ar        1 RJP      -0.0755
     13 CAM        28.7088   30.0938   -3.4231 C.ar        1 RJP      -0.0413
     14 CAN        27.3007   28.5409   -4.6570 C.ar        1 RJP      -0.0413
     15 CAO        29.1439   22.8106    2.3183 C.3         1 RJP      -0.0350
     16 NAP        28.3653   27.8986   -2.5375 N.am        1 RJP      -0.2336
     17 CAQ        28.5022   26.5771   -2.6383 C.2         1 RJP       0.2085
     18 CAR        30.2331   20.9871    0.9554 C.2         1 RJP       0.0068
     19 CAS        29.9246   24.0265   -0.1960 C.2         1 RJP       0.0428
     20 CAT        28.1334   28.8064   -3.5410 C.ar        1 RJP       0.0662
     21 CAU        30.1560   24.0056    2.3316 C.3         1 RJP       0.0972
     22 CAV        30.8023   24.3284    0.9463 C.3         1 RJP       0.1616
     23 CAW        29.1282   21.9898    0.9852 C.3         1 RJP       0.0564
     24 H1         31.5782   22.9163    3.0829 H           1 RJP       0.2103
     25 H2         30.5017   26.2348    0.7618 H           1 RJP       0.2176
     26 H3         28.0927   20.3125    0.9805 H           1 RJP       0.1842
     27 H4         28.5799   26.3643   -0.5501 H           1 RJP       0.0562
     28 H5         27.7220   25.0994   -1.4371 H           1 RJP       0.0562
     29 H6         30.7671   25.5124   -1.4584 H           1 RJP       0.0714
     30 H7         29.9287   24.2162   -2.2871 H           1 RJP       0.0714
     31 H8         28.5788   22.6929   -0.9345 H           1 RJP       0.0428
     32 H9         27.5515   31.4824   -6.2545 H           1 RJP       0.0487
     33 H10        28.9434   31.9856   -4.3324 H           1 RJP       0.0577
     34 H11        26.4767   29.3176   -6.4354 H           1 RJP       0.0577
     35 H12        29.3033   30.3193   -2.6193 H           1 RJP       0.0502
     36 H13        26.8266   27.6383   -4.7508 H           1 RJP       0.0502
     37 H14        28.1401   23.2194    2.4676 H           1 RJP       0.0144
     38 H15        29.3291   22.1493    3.1716 H           1 RJP       0.0144
     39 H16        28.4949   28.2781   -1.6536 H           1 RJP       0.2257
     40 H17        29.6102   24.8886    2.6723 H           1 RJP       0.0662
     41 H18        31.6948   23.7099    0.8275 H           1 RJP       0.1053
@<TRIPOS>BOND
     1    17     1   2
     2    18     2  ar
     3    18     3  ar
     4    21     4   1
     5    22     5   1
     6    23     6   1
     7     8     7   1
     8     7    17   1
     9    19     8   1
    10    19     9   2
    11     9    23   1
    12    11    10  ar
    13    12    10  ar
    14    13    11  ar
    15    14    12  ar
    16    20    13  ar
    17    20    14  ar
    18    15    21   1
    19    23    15   1
    20    17    16  am
    21    16    20   1
    22    23    18   1
    23    19    22   1
    24    21    22   1
    25     4    24   1
    26     5    25   1
    27     6    26   1
    28     7    27   1
    29     7    28   1
    30     8    29   1
    31     8    30   1
    32     9    31   1
    33    10    32   1
    34    11    33   1
    35    12    34   1
    36    13    35   1
    37    14    36   1
    38    15    37   1
    39    15    38   1
    40    16    39   1
    41    21    40   1
    42    22    41   1
@<TRIPOS>SUBSTRUCTURE
     1  RJP      7

