@<TRIPOS>MOLECULE
3n86_ligand_013
    41    42
SMALL
GAST_HUCK
****
This file was generated by PARSER (from files_GN.cpp)

@<TRIPOS>ATOM
      1 OAA        24.0707   26.2132   -1.0381 O.2         1 RJP      -0.3845
      2 OAB        29.1884   25.0137   -4.2426 O.co2       1 RJP      -0.5717
      3 OAC        29.4993   23.9304   -2.2211 O.co2       1 RJP      -0.5717
      4 OAD        30.1119   29.8842   -2.5566 O.3         1 RJP      -0.3854
      5 OAE        27.2343   30.0657   -1.7594 O.3         1 RJP      -0.3562
      6 OAF        28.9715   26.1265   -0.7635 O.3         1 RJP      -0.4539
      7 CAG        24.5830   28.3244   -1.7840 C.3         1 RJP       0.0698
      8 CAH        25.5357   28.0708   -2.9910 C.3         1 RJP       0.0498
      9 CAI        27.4232   26.6325   -2.3941 C.2         1 RJP      -0.0572
     10 CAJ        18.9062   25.0308   -1.5608 C.ar        1 RJP      -0.0772
     11 CAK        18.8266   26.4309   -1.6482 C.ar        1 RJP      -0.0755
     12 CAL        20.1642   24.4058   -1.5361 C.ar        1 RJP      -0.0755
     13 CAM        19.9998   27.2023   -1.7134 C.ar        1 RJP      -0.0413
     14 CAN        21.3391   25.1768   -1.5954 C.ar        1 RJP      -0.0413
     15 CAO        29.7941   27.4582   -2.6329 C.3         1 RJP      -0.0350
     16 NAP        22.3459   27.4324   -1.7875 N.am        1 RJP      -0.2336
     17 CAQ        23.6399   27.2433   -1.5398 C.2         1 RJP       0.2085
     18 CAR        29.1919   25.0597   -2.8910 C.2         1 RJP       0.0068
     19 CAS        26.9430   27.8786   -2.6224 C.2         1 RJP       0.0428
     20 CAT        21.2741   26.5894   -1.6764 C.ar        1 RJP       0.0662
     21 CAU        29.2788   28.8181   -2.1069 C.3         1 RJP       0.0972
     22 CAV        27.8212   29.0637   -2.5932 C.3         1 RJP       0.1616
     23 CAW        28.8355   26.3108   -2.1782 C.3         1 RJP       0.0564
     24 H1         30.9619   29.7663   -2.0888 H           1 RJP       0.2103
     25 H2         27.7549   30.8787   -1.9069 H           1 RJP       0.2176
     26 H3         29.9169   25.9468   -0.6004 H           1 RJP       0.1842
     27 H4         24.0406   29.2467   -1.9855 H           1 RJP       0.0562
     28 H5         25.1371   28.5025   -0.8675 H           1 RJP       0.0562
     29 H6         25.4663   28.9256   -3.6700 H           1 RJP       0.0714
     30 H7         25.1921   27.2198   -3.5914 H           1 RJP       0.0714
     31 H8         26.7749   25.8845   -2.3395 H           1 RJP       0.0428
     32 H9         18.0517   24.4710   -1.5187 H           1 RJP       0.0487
     33 H10        17.9103   26.8913   -1.6764 H           1 RJP       0.0577
     34 H11        20.2219   23.3879   -1.4924 H           1 RJP       0.0577
     35 H12        19.9185   28.2189   -1.7889 H           1 RJP       0.0502
     36 H13        22.2346   24.6863   -1.6068 H           1 RJP       0.0502
     37 H14        30.8052   27.2748   -2.2561 H           1 RJP       0.0144
     38 H15        29.8479   27.5046   -3.7178 H           1 RJP       0.0144
     39 H16        22.1209   28.3408   -2.0578 H           1 RJP       0.2257
     40 H17        29.3027   28.8078   -1.0114 H           1 RJP       0.0662
     41 H18        27.8630   29.4548   -3.6157 H           1 RJP       0.1053
@<TRIPOS>BOND
     1    17     1   2
     2    18     2  ar
     3    18     3  ar
     4    21     4   1
     5    22     5   1
     6    23     6   1
     7     8     7   1
     8     7    17   1
     9    19     8   1
    10    19     9   2
    11     9    23   1
    12    11    10  ar
    13    12    10  ar
    14    13    11  ar
    15    14    12  ar
    16    20    13  ar
    17    20    14  ar
    18    15    21   1
    19    23    15   1
    20    17    16  am
    21    16    20   1
    22    23    18   1
    23    19    22   1
    24    21    22   1
    25     4    24   1
    26     5    25   1
    27     6    26   1
    28     7    27   1
    29     7    28   1
    30     8    29   1
    31     8    30   1
    32     9    31   1
    33    10    32   1
    34    11    33   1
    35    12    34   1
    36    13    35   1
    37    14    36   1
    38    15    37   1
    39    15    38   1
    40    16    39   1
    41    21    40   1
    42    22    41   1
@<TRIPOS>SUBSTRUCTURE
     1  RJP      7

