@<TRIPOS>MOLECULE
3n86_ligand_004
    41    42
SMALL
GAST_HUCK
****
This file was generated by PARSER (from files_GN.cpp)

@<TRIPOS>ATOM
      1 OAA        30.1910   27.0697   -1.2734 O.2         1 RJP      -0.3845
      2 OAB        29.7234   20.1877    1.9504 O.co2       1 RJP      -0.5717
      3 OAC        30.0072   20.5411   -0.3080 O.co2       1 RJP      -0.5717
      4 OAD        31.3714   23.7981    2.6323 O.3         1 RJP      -0.3854
      5 OAE        31.5954   25.0032   -0.0428 O.3         1 RJP      -0.3562
      6 OAF        27.3081   21.6445    1.2414 O.3         1 RJP      -0.4539
      7 CAG        28.5589   25.6485   -2.1295 C.3         1 RJP       0.0698
      8 CAH        29.5088   24.4158   -1.9715 C.3         1 RJP       0.0498
      9 CAI        28.5699   22.9375   -0.2740 C.2         1 RJP      -0.0572
     10 CAJ        29.1851   32.1498   -1.6989 C.ar        1 RJP      -0.0772
     11 CAK        27.8737   31.6489   -1.6378 C.ar        1 RJP      -0.0755
     12 CAL        30.2578   31.2769   -1.9513 C.ar        1 RJP      -0.0755
     13 CAM        27.6371   30.2703   -1.7985 C.ar        1 RJP      -0.0413
     14 CAN        30.0192   29.8984   -2.1142 C.ar        1 RJP      -0.0413
     15 CAO        29.0452   23.1309    2.1288 C.3         1 RJP      -0.0350
     16 NAP        28.3890   28.0435   -2.1416 N.am        1 RJP      -0.2336
     17 CAQ        29.1082   26.9671   -1.8334 C.2         1 RJP       0.2085
     18 CAR        29.5125   20.9786    0.8741 C.2         1 RJP       0.0068
     19 CAS        29.5532   23.7968   -0.6356 C.2         1 RJP       0.0428
     20 CAT        28.7068   29.3707   -2.0052 C.ar        1 RJP       0.0662
     21 CAU        30.2633   24.0498    1.7642 C.3         1 RJP       0.0972
     22 CAV        30.7111   23.9272    0.2706 C.3         1 RJP       0.1616
     23 CAW        28.6148   22.1648    0.9745 C.3         1 RJP       0.0564
     24 H1         31.5352   22.8316    2.5911 H           1 RJP       0.2103
     25 H2         32.4610   24.7372    0.3367 H           1 RJP       0.2176
     26 H3         27.2995   21.3964    2.1910 H           1 RJP       0.1842
     27 H4         27.6579   25.5049   -1.5280 H           1 RJP       0.0562
     28 H5         28.2380   25.6685   -3.1761 H           1 RJP       0.0562
     29 H6         30.5089   24.6969   -2.3052 H           1 RJP       0.0714
     30 H7         29.1833   23.6505   -2.6850 H           1 RJP       0.0714
     31 H8         27.7809   22.8186   -0.8709 H           1 RJP       0.0428
     32 H9         29.3551   33.1488   -1.5703 H           1 RJP       0.0487
     33 H10        27.0936   32.2881   -1.4752 H           1 RJP       0.0577
     34 H11        31.2096   31.6458   -2.0244 H           1 RJP       0.0577
     35 H12        26.6752   29.9242   -1.7440 H           1 RJP       0.0502
     36 H13        30.8088   29.2904   -2.3376 H           1 RJP       0.0502
     37 H14        28.1903   23.7760    2.3567 H           1 RJP       0.0144
     38 H15        29.2532   22.5639    3.0414 H           1 RJP       0.0144
     39 H16        27.4918   27.8660   -2.4690 H           1 RJP       0.2257
     40 H17        29.9699   25.0887    1.9428 H           1 RJP       0.0662
     41 H18        31.3042   23.0148    0.1650 H           1 RJP       0.1053
@<TRIPOS>BOND
     1    17     1   2
     2    18     2  ar
     3    18     3  ar
     4    21     4   1
     5    22     5   1
     6    23     6   1
     7     8     7   1
     8     7    17   1
     9    19     8   1
    10    19     9   2
    11     9    23   1
    12    11    10  ar
    13    12    10  ar
    14    13    11  ar
    15    14    12  ar
    16    20    13  ar
    17    20    14  ar
    18    15    21   1
    19    23    15   1
    20    17    16  am
    21    16    20   1
    22    23    18   1
    23    19    22   1
    24    21    22   1
    25     4    24   1
    26     5    25   1
    27     6    26   1
    28     7    27   1
    29     7    28   1
    30     8    29   1
    31     8    30   1
    32     9    31   1
    33    10    32   1
    34    11    33   1
    35    12    34   1
    36    13    35   1
    37    14    36   1
    38    15    37   1
    39    15    38   1
    40    16    39   1
    41    21    40   1
    42    22    41   1
@<TRIPOS>SUBSTRUCTURE
     1  RJP      7

