@<TRIPOS>MOLECULE
3n86_ligand_005
    41    42
SMALL
GAST_HUCK
****
This file was generated by PARSER (from files_GN.cpp)

@<TRIPOS>ATOM
      1 OAA        24.0837   26.3135   -1.0232 O.2         1 RJP      -0.3845
      2 OAB        27.9752   31.5246   -0.1675 O.co2       1 RJP      -0.5717
      3 OAC        27.2152   32.8498   -1.8764 O.co2       1 RJP      -0.5717
      4 OAD        30.9083   27.9906   -2.6599 O.3         1 RJP      -0.3854
      5 OAE        28.4786   26.8168   -3.8157 O.3         1 RJP      -0.3562
      6 OAF        28.4991   31.3455   -3.7552 O.3         1 RJP      -0.4539
      7 CAG        24.6507   28.2627   -2.1032 C.3         1 RJP       0.0698
      8 CAH        25.9246   27.6893   -2.8029 C.3         1 RJP       0.0498
      9 CAI        27.1077   29.8491   -2.6679 C.2         1 RJP      -0.0572
     10 CAJ        18.9816   25.6388   -0.1515 C.ar        1 RJP      -0.0772
     11 CAK        18.9933   27.0242   -0.4150 C.ar        1 RJP      -0.0755
     12 CAL        20.1205   24.8669   -0.4462 C.ar        1 RJP      -0.0755
     13 CAM        20.1405   27.6279   -0.9538 C.ar        1 RJP      -0.0413
     14 CAN        21.2702   25.4773   -0.9890 C.ar        1 RJP      -0.0413
     15 CAO        29.5645   29.9510   -2.0637 C.3         1 RJP      -0.0350
     16 NAP        22.3725   27.5571   -1.7300 N.am        1 RJP      -0.2336
     17 CAQ        23.6713   27.2688   -1.6700 C.2         1 RJP       0.2085
     18 CAR        27.9780   31.7983   -1.4927 C.2         1 RJP       0.0068
     19 CAS        27.1532   28.4999   -2.7344 C.2         1 RJP       0.0428
     20 CAT        21.2999   26.8676   -1.2290 C.ar        1 RJP       0.0662
     21 CAU        29.6960   28.6912   -2.9476 C.3         1 RJP       0.0972
     22 CAV        28.4420   27.7861   -2.7560 C.3         1 RJP       0.1616
     23 CAW        28.2745   30.7256   -2.4835 C.3         1 RJP       0.0564
     24 H1         31.1423   27.5218   -3.4885 H           1 RJP       0.2103
     25 H2         28.1365   25.9808   -3.4116 H           1 RJP       0.2176
     26 H3         29.4723   31.4555   -3.8432 H           1 RJP       0.1842
     27 H4         24.1773   28.9516   -2.8030 H           1 RJP       0.0562
     28 H5         24.9404   28.8209   -1.2176 H           1 RJP       0.0562
     29 H6         25.6918   27.5150   -3.8611 H           1 RJP       0.0714
     30 H7         26.1316   26.7074   -2.3618 H           1 RJP       0.0714
     31 H8         26.2316   30.3033   -2.8124 H           1 RJP       0.0428
     32 H9         18.1525   25.1949    0.2448 H           1 RJP       0.0487
     33 H10        18.1616   27.5832   -0.2077 H           1 RJP       0.0577
     34 H11        20.1125   23.8566   -0.2694 H           1 RJP       0.0577
     35 H12        20.1258   28.6381   -1.1280 H           1 RJP       0.0502
     36 H13        22.0648   24.8816   -1.2139 H           1 RJP       0.0502
     37 H14        30.4476   30.5775   -2.1781 H           1 RJP       0.0144
     38 H15        29.5092   29.6333   -1.0190 H           1 RJP       0.0144
     39 H16        22.1683   28.4441   -2.0581 H           1 RJP       0.2257
     40 H17        29.7477   29.0052   -3.9957 H           1 RJP       0.0662
     41 H18        28.5542   27.2475   -1.8064 H           1 RJP       0.1053
@<TRIPOS>BOND
     1    17     1   2
     2    18     2  ar
     3    18     3  ar
     4    21     4   1
     5    22     5   1
     6    23     6   1
     7     8     7   1
     8     7    17   1
     9    19     8   1
    10    19     9   2
    11     9    23   1
    12    11    10  ar
    13    12    10  ar
    14    13    11  ar
    15    14    12  ar
    16    20    13  ar
    17    20    14  ar
    18    15    21   1
    19    23    15   1
    20    17    16  am
    21    16    20   1
    22    23    18   1
    23    19    22   1
    24    21    22   1
    25     4    24   1
    26     5    25   1
    27     6    26   1
    28     7    27   1
    29     7    28   1
    30     8    29   1
    31     8    30   1
    32     9    31   1
    33    10    32   1
    34    11    33   1
    35    12    34   1
    36    13    35   1
    37    14    36   1
    38    15    37   1
    39    15    38   1
    40    16    39   1
    41    21    40   1
    42    22    41   1
@<TRIPOS>SUBSTRUCTURE
     1  RJP      7

