@<TRIPOS>MOLECULE
3n86_ligand_021
    41    42
SMALL
GAST_HUCK
****
This file was generated by PARSER (from files_GN.cpp)

@<TRIPOS>ATOM
      1 OAA        29.1620   26.9469   -0.5034 O.2         1 RJP      -0.3845
      2 OAB        29.8272   21.5232    2.2607 O.co2       1 RJP      -0.5717
      3 OAC        29.0979   22.4509    4.2276 O.co2       1 RJP      -0.5717
      4 OAD        31.6341   22.4435    0.5535 O.3         1 RJP      -0.3854
      5 OAE        30.8101   25.7750   -0.7487 O.3         1 RJP      -0.3562
      6 OAF        29.3228   24.9287    3.4247 O.3         1 RJP      -0.4539
      7 CAG        28.1076   25.5745   -2.0350 C.3         1 RJP       0.0698
      8 CAH        28.0910   24.3426   -1.0715 C.3         1 RJP       0.0498
      9 CAI        28.7880   24.1376    1.2758 C.2         1 RJP      -0.0572
     10 CAJ        28.6568   32.0708   -1.4078 C.ar        1 RJP      -0.0772
     11 CAK        27.4963   31.6202   -2.0664 C.ar        1 RJP      -0.0755
     12 CAL        29.6337   31.1460   -1.0065 C.ar        1 RJP      -0.0755
     13 CAM        27.3108   30.2426   -2.3073 C.ar        1 RJP      -0.0413
     14 CAN        29.4428   29.7708   -1.2469 C.ar        1 RJP      -0.0413
     15 CAO        31.1896   24.3544    2.0223 C.3         1 RJP      -0.0350
     16 NAP        28.0072   27.9731   -2.1436 N.am        1 RJP      -0.2336
     17 CAQ        28.4152   26.8878   -1.4851 C.2         1 RJP       0.2085
     18 CAR        29.5808   22.6422    2.9814 C.2         1 RJP       0.0068
     19 CAS        29.1336   24.2749   -0.0288 C.2         1 RJP       0.0428
     20 CAT        28.2688   29.2976   -1.8739 C.ar        1 RJP       0.0662
     21 CAU        31.5675   23.8648    0.6048 C.3         1 RJP       0.0972
     22 CAV        30.5410   24.3837   -0.4466 C.3         1 RJP       0.1616
     23 CAW        29.7145   24.0054    2.4012 C.3         1 RJP       0.0564
     24 H1         31.9638   22.1576    1.4334 H           1 RJP       0.2103
     25 H2         31.7167   25.7619   -1.1939 H           1 RJP       0.2176
     26 H3         29.7245   25.7916    3.1985 H           1 RJP       0.1842
     27 H4         27.1232   25.6176   -2.5102 H           1 RJP       0.0562
     28 H5         28.8218   25.3837   -2.8374 H           1 RJP       0.0562
     29 H6         28.1877   23.4404   -1.6827 H           1 RJP       0.0714
     30 H7         27.0895   24.2872   -0.6395 H           1 RJP       0.0714
     31 H8         27.8218   24.0699    1.5060 H           1 RJP       0.0428
     32 H9         28.7927   33.0674   -1.2298 H           1 RJP       0.0487
     33 H10        26.7905   32.2952   -2.3680 H           1 RJP       0.0577
     34 H11        30.4887   31.4718   -0.5490 H           1 RJP       0.0577
     35 H12        26.4628   29.9384   -2.7904 H           1 RJP       0.0502
     36 H13        30.1952   29.1353   -0.9789 H           1 RJP       0.0502
     37 H14        31.3069   25.4412    2.0332 H           1 RJP       0.0144
     38 H15        31.8875   23.9533    2.7623 H           1 RJP       0.0144
     39 H16        27.4048   27.8143   -2.8880 H           1 RJP       0.2257
     40 H17        32.5605   24.2421    0.3494 H           1 RJP       0.0662
     41 H18        30.6795   23.8037   -1.3599 H           1 RJP       0.1053
@<TRIPOS>BOND
     1    17     1   2
     2    18     2  ar
     3    18     3  ar
     4    21     4   1
     5    22     5   1
     6    23     6   1
     7     8     7   1
     8     7    17   1
     9    19     8   1
    10    19     9   2
    11     9    23   1
    12    11    10  ar
    13    12    10  ar
    14    13    11  ar
    15    14    12  ar
    16    20    13  ar
    17    20    14  ar
    18    15    21   1
    19    23    15   1
    20    17    16  am
    21    16    20   1
    22    23    18   1
    23    19    22   1
    24    21    22   1
    25     4    24   1
    26     5    25   1
    27     6    26   1
    28     7    27   1
    29     7    28   1
    30     8    29   1
    31     8    30   1
    32     9    31   1
    33    10    32   1
    34    11    33   1
    35    12    34   1
    36    13    35   1
    37    14    36   1
    38    15    37   1
    39    15    38   1
    40    16    39   1
    41    21    40   1
    42    22    41   1
@<TRIPOS>SUBSTRUCTURE
     1  RJP      7

