@<TRIPOS>MOLECULE
3n86_ligand_014
    41    42
SMALL
GAST_HUCK
****
This file was generated by PARSER (from files_GN.cpp)

@<TRIPOS>ATOM
      1 OAA        28.8007   25.5552   -3.7772 O.2         1 RJP      -0.3845
      2 OAB        30.7058   31.3269   -0.9252 O.co2       1 RJP      -0.5717
      3 OAC        29.4655   32.6511    0.5090 O.co2       1 RJP      -0.5717
      4 OAD        27.4587   33.1346   -4.7717 O.3         1 RJP      -0.3854
      5 OAE        26.5718   30.3560   -4.9571 O.3         1 RJP      -0.3562
      6 OAF        27.1203   31.8092   -0.6047 O.3         1 RJP      -0.4539
      7 CAG        29.2806   27.6116   -2.8736 C.3         1 RJP       0.0698
      8 CAH        28.0214   28.3598   -3.4194 C.3         1 RJP       0.0498
      9 CAI        28.1963   30.2021   -1.8352 C.2         1 RJP      -0.0572
     10 CAJ        28.4789   21.7953    0.0576 C.ar        1 RJP      -0.0772
     11 CAK        28.6665   22.9182    0.8787 C.ar        1 RJP      -0.0755
     12 CAL        28.4927   21.9376   -1.3378 C.ar        1 RJP      -0.0755
     13 CAM        28.8732   24.1839    0.2976 C.ar        1 RJP      -0.0413
     14 CAN        28.6912   23.2059   -1.9179 C.ar        1 RJP      -0.0413
     15 CAO        28.3655   32.6224   -2.5551 C.3         1 RJP      -0.0350
     16 NAP        29.0885   25.6363   -1.5373 N.am        1 RJP      -0.2336
     17 CAQ        29.0613   26.1788   -2.7525 C.2         1 RJP       0.2085
     18 CAR        29.4880   31.7536   -0.5039 C.2         1 RJP       0.0068
     19 CAS        27.9802   29.8022   -3.1115 C.2         1 RJP       0.0428
     20 CAT        28.8832   24.3551   -1.1062 C.ar        1 RJP       0.0662
     21 CAU        27.3827   32.2181   -3.6802 C.3         1 RJP       0.0972
     22 CAV        27.6951   30.7763   -4.1756 C.3         1 RJP       0.1616
     23 CAW        28.3001   31.5929   -1.3826 C.3         1 RJP       0.0564
     24 H1         27.3144   34.0212   -4.3814 H           1 RJP       0.2103
     25 H2         26.3209   31.1354   -5.5051 H           1 RJP       0.2176
     26 H3         27.1621   32.7384   -0.3049 H           1 RJP       0.1842
     27 H4         29.5484   28.0315   -1.8923 H           1 RJP       0.0562
     28 H5         30.1410   27.7967   -3.5324 H           1 RJP       0.0562
     29 H6         27.1099   27.9121   -2.9948 H           1 RJP       0.0714
     30 H7         27.9750   28.1835   -4.5061 H           1 RJP       0.0714
     31 H8         28.2673   29.4912   -1.1374 H           1 RJP       0.0428
     32 H9         28.3315   20.8776    0.4820 H           1 RJP       0.0487
     33 H10        28.6537   22.8219    1.8966 H           1 RJP       0.0577
     34 H11        28.3564   21.1167   -1.9314 H           1 RJP       0.0577
     35 H12        29.0148   24.9875    0.9141 H           1 RJP       0.0502
     36 H13        28.6965   23.2712   -2.9359 H           1 RJP       0.0502
     37 H14        28.1213   33.6170   -2.1854 H           1 RJP       0.0144
     38 H15        29.3725   32.6491   -2.9780 H           1 RJP       0.0144
     39 H16        29.2601   26.2645   -0.8239 H           1 RJP       0.2257
     40 H17        26.3618   32.2589   -3.2804 H           1 RJP       0.0662
     41 H18        28.5692   30.8113   -4.8394 H           1 RJP       0.1053
@<TRIPOS>BOND
     1    17     1   2
     2    18     2  ar
     3    18     3  ar
     4    21     4   1
     5    22     5   1
     6    23     6   1
     7     8     7   1
     8     7    17   1
     9    19     8   1
    10    19     9   2
    11     9    23   1
    12    11    10  ar
    13    12    10  ar
    14    13    11  ar
    15    14    12  ar
    16    20    13  ar
    17    20    14  ar
    18    15    21   1
    19    23    15   1
    20    17    16  am
    21    16    20   1
    22    23    18   1
    23    19    22   1
    24    21    22   1
    25     4    24   1
    26     5    25   1
    27     6    26   1
    28     7    27   1
    29     7    28   1
    30     8    29   1
    31     8    30   1
    32     9    31   1
    33    10    32   1
    34    11    33   1
    35    12    34   1
    36    13    35   1
    37    14    36   1
    38    15    37   1
    39    15    38   1
    40    16    39   1
    41    21    40   1
    42    22    41   1
@<TRIPOS>SUBSTRUCTURE
     1  RJP      7

