@<TRIPOS>MOLECULE
3nox_ligand_034
    48    51
SMALL
GAST_HUCK
****
This file was generated by PARSER (from files_GN.cpp)

@<TRIPOS>ATOM
      1 C1         55.2730   50.8904   34.8115 C.2         1 MOL       0.1404
      2 C2         55.3143   52.1931   35.2365 C.2         1 MOL       0.0782
      3 C3         54.1825   52.9938   34.9982 C.2         1 MOL       0.0387
      4 N4         53.0726   52.4607   34.4995 N.2         1 MOL      -0.2660
      5 N5         54.1278   50.3934   34.2657 N.pl3       1 MOL      -0.1859
      6 C6         53.0290   51.1607   34.1495 C.2         1 MOL       0.1941
      7 N7         52.0008   50.4754   33.6292 N.2         1 MOL      -0.3175
      8 C8         52.4514   49.2355   33.3704 C.2         1 MOL       0.0787
      9 C9         53.7850   49.1826   33.7762 C.2         1 MOL       0.0743
     10 C10        51.6747   48.2155   32.8441 C.2         1 MOL       0.1958
     11 O11        50.5082   48.2255   33.2408 O.2         1 MOL      -0.3941
     12 N12        52.0873   47.2359   32.0153 N.am        1 MOL      -0.2710
     13 C13        54.1306   54.4409   35.1976 C.3         1 MOL      -0.0096
     14 C14        56.3551   50.0138   34.9294 C.ar        1 MOL       0.0400
     15 C15        56.4775   52.7396   35.9627 C.3         1 MOL       0.0036
     16 N16        57.3335   53.5374   35.0762 N.4         1 MOL       0.2296
     17 C17        57.5345   50.2726   34.1883 C.ar        1 MOL      -0.0470
     18 C18        58.6285   49.3901   34.2534 C.ar        1 MOL      -0.0451
     19 C19        58.5572   48.2338   35.0564 C.ar        1 MOL       0.0429
     20 C20        57.3819   47.9605   35.7853 C.ar        1 MOL      -0.0313
     21 C21        56.2790   48.8375   35.7243 C.ar        1 MOL       0.0551
     22 CL22       54.8964   48.4300   36.6239 Cl          1 MOL      -0.0670
     23 CL23       59.8752   47.1734   35.1360 Cl          1 MOL      -0.0685
     24 C24        53.3623   47.2860   31.3190 C.3         1 MOL       0.0564
     25 C25        53.2072   46.8864   29.8234 C.3         1 MOL       0.0680
     26 O26        52.2856   45.8093   29.5557 O.3         1 MOL      -0.3758
     27 C27        51.8093   45.0879   30.7099 C.3         1 MOL       0.0680
     28 C28        51.2246   46.0968   31.7363 C.3         1 MOL       0.0564
     29 H1         54.3820   48.3550   33.7327 H           1 MOL       0.0902
     30 H2         53.1770   54.8699   34.8726 H           1 MOL       0.0451
     31 H3         54.9271   54.9296   34.6341 H           1 MOL       0.0451
     32 H4         54.2447   54.6718   36.2543 H           1 MOL       0.0451
     33 H5         57.0919   51.9542   36.4080 H           1 MOL       0.0958
     34 H6         56.1824   53.3706   36.8001 H           1 MOL       0.0958
     35 H7         58.1052   53.9297   35.6150 H           1 MOL       0.2006
     36 H8         56.7910   54.2970   34.6611 H           1 MOL       0.2006
     37 H9         57.7053   52.9457   34.3301 H           1 MOL       0.2006
     38 H10        57.6055   51.1029   33.5904 H           1 MOL       0.0642
     39 H11        59.4718   49.5895   33.7086 H           1 MOL       0.0629
     40 H12        57.3309   47.1130   36.3580 H           1 MOL       0.0634
     41 H13        54.0456   46.5793   31.8027 H           1 MOL       0.0544
     42 H14        53.8383   48.2656   31.3414 H           1 MOL       0.0544
     43 H15        54.1851   46.6182   29.4118 H           1 MOL       0.0580
     44 H16        52.8347   47.7544   29.2642 H           1 MOL       0.0580
     45 H17        52.6318   44.5225   31.1574 H           1 MOL       0.0580
     46 H18        51.0418   44.3795   30.3926 H           1 MOL       0.0580
     47 H19        50.2733   46.4567   31.3282 H           1 MOL       0.0544
     48 H20        51.0113   45.5548   32.6667 H           1 MOL       0.0544
@<TRIPOS>BOND
     1     1     2   2
     2     1     5   1
     3     1    14   1
     4     2     3   1
     5     2    15   1
     6     3     4   2
     7     3    13   1
     8     4     6   1
     9     5     6   1
    10     5     9   1
    11     6     7   2
    12     7     8   1
    13     8     9   2
    14     8    10   1
    15    10    11   2
    16    10    12  am
    17    12    24   1
    18    12    28   1
    19    14    17  ar
    20    14    21  ar
    21    15    16   1
    22    17    18  ar
    23    18    19  ar
    24    19    20  ar
    25    19    23   1
    26    20    21  ar
    27    21    22   1
    28    24    25   1
    29    25    26   1
    30    26    27   1
    31    27    28   1
    32     9    29   1
    33    13    30   1
    34    13    31   1
    35    13    32   1
    36    15    33   1
    37    15    34   1
    38    16    35   1
    39    16    36   1
    40    16    37   1
    41    17    38   1
    42    18    39   1
    43    20    40   1
    44    24    41   1
    45    24    42   1
    46    25    43   1
    47    25    44   1
    48    27    45   1
    49    27    46   1
    50    28    47   1
    51    28    48   1
@<TRIPOS>SUBSTRUCTURE
     1  MOL      1

