@<TRIPOS>MOLECULE
3nox_ligand_047
    48    51
SMALL
GAST_HUCK
****
This file was generated by PARSER (from files_GN.cpp)

@<TRIPOS>ATOM
      1 C1         49.6811   50.4565   33.7007 C.2         1 MOL       0.1404
      2 C2         49.0469   51.3492   32.8734 C.2         1 MOL       0.0782
      3 C3         49.6540   51.6519   31.6392 C.2         1 MOL       0.0387
      4 N4         50.8130   51.0962   31.3042 N.2         1 MOL      -0.2660
      5 N5         50.8831   49.9252   33.3176 N.pl3       1 MOL      -0.1859
      6 C6         51.4368   50.2354   32.1291 C.2         1 MOL       0.1941
      7 N7         52.5976   49.5912   31.9296 N.2         1 MOL      -0.3175
      8 C8         52.8177   48.8610   33.0351 C.2         1 MOL       0.0787
      9 C9         51.7381   49.0543   33.8957 C.2         1 MOL       0.0743
     10 C10        53.9018   48.0307   33.2500 C.2         1 MOL       0.1958
     11 O11        54.0703   47.1970   32.3678 O.2         1 MOL      -0.3941
     12 N12        54.6962   48.0532   34.3394 N.am        1 MOL      -0.2710
     13 C13        49.1097   52.5659   30.6415 C.3         1 MOL      -0.0096
     14 C14        49.1413   50.0070   34.9180 C.ar        1 MOL       0.0400
     15 C15        47.7747   52.0038   33.2476 C.3         1 MOL       0.0036
     16 N16        46.6207   51.3682   32.5940 N.4         1 MOL       0.2296
     17 C17        48.0046   49.1623   34.8963 C.ar        1 MOL      -0.0470
     18 C18        47.4415   48.6743   36.0884 C.ar        1 MOL      -0.0451
     19 C19        48.0355   48.9805   37.3251 C.ar        1 MOL       0.0429
     20 C20        49.1857   49.7899   37.3621 C.ar        1 MOL      -0.0313
     21 C21        49.7277   50.3238   36.1741 C.ar        1 MOL       0.0551
     22 CL22       51.0714   51.3532   36.3219 Cl          1 MOL      -0.0670
     23 CL23       47.3835   48.3546   38.7563 Cl          1 MOL      -0.0685
     24 C24        54.7354   49.1775   35.2651 C.3         1 MOL       0.0564
     25 C25        56.2064   49.5391   35.6177 C.3         1 MOL       0.0680
     26 O26        57.0525   48.4184   35.9644 O.3         1 MOL      -0.3758
     27 C27        56.4653   47.1060   35.8701 C.3         1 MOL       0.0680
     28 C28        55.6243   46.9543   34.5748 C.3         1 MOL       0.0564
     29 H1         51.6117   48.5825   34.7955 H           1 MOL       0.0902
     30 H2         49.7597   52.6629   29.7677 H           1 MOL       0.0451
     31 H3         48.9908   53.5625   31.0652 H           1 MOL       0.0451
     32 H4         48.1429   52.2063   30.2901 H           1 MOL       0.0451
     33 H5         47.7821   53.0598   32.9797 H           1 MOL       0.0958
     34 H6         47.5930   51.9857   34.3235 H           1 MOL       0.0958
     35 H7         45.7585   51.7996   32.9343 H           1 MOL       0.2006
     36 H8         46.6018   50.3699   32.8088 H           1 MOL       0.2006
     37 H9         46.6728   51.4910   31.5822 H           1 MOL       0.2006
     38 H10        47.5781   48.8865   34.0079 H           1 MOL       0.0642
     39 H11        46.6083   48.0827   36.0476 H           1 MOL       0.0629
     40 H12        49.6433   49.9795   38.2565 H           1 MOL       0.0634
     41 H13        54.2092   48.8961   36.1811 H           1 MOL       0.0544
     42 H14        54.2599   50.0805   34.8719 H           1 MOL       0.0544
     43 H15        56.2225   50.2532   36.4438 H           1 MOL       0.0580
     44 H16        56.6619   50.0236   34.7502 H           1 MOL       0.0580
     45 H17        55.8297   46.9361   36.7445 H           1 MOL       0.0580
     46 H18        57.2653   46.3621   35.8855 H           1 MOL       0.0580
     47 H19        56.3220   46.8898   33.7335 H           1 MOL       0.0544
     48 H20        55.0718   46.0115   34.6369 H           1 MOL       0.0544
@<TRIPOS>BOND
     1     1     2   2
     2     1     5   1
     3     1    14   1
     4     2     3   1
     5     2    15   1
     6     3     4   2
     7     3    13   1
     8     4     6   1
     9     5     6   1
    10     5     9   1
    11     6     7   2
    12     7     8   1
    13     8     9   2
    14     8    10   1
    15    10    11   2
    16    10    12  am
    17    12    24   1
    18    12    28   1
    19    14    17  ar
    20    14    21  ar
    21    15    16   1
    22    17    18  ar
    23    18    19  ar
    24    19    20  ar
    25    19    23   1
    26    20    21  ar
    27    21    22   1
    28    24    25   1
    29    25    26   1
    30    26    27   1
    31    27    28   1
    32     9    29   1
    33    13    30   1
    34    13    31   1
    35    13    32   1
    36    15    33   1
    37    15    34   1
    38    16    35   1
    39    16    36   1
    40    16    37   1
    41    17    38   1
    42    18    39   1
    43    20    40   1
    44    24    41   1
    45    24    42   1
    46    25    43   1
    47    25    44   1
    48    27    45   1
    49    27    46   1
    50    28    47   1
    51    28    48   1
@<TRIPOS>SUBSTRUCTURE
     1  MOL      1

