@<TRIPOS>MOLECULE
3nox_ligand_060
    48    51
SMALL
GAST_HUCK
****
This file was generated by PARSER (from files_GN.cpp)

@<TRIPOS>ATOM
      1 C1         48.5555   49.3912   35.2777 C.2         1 MOL       0.1404
      2 C2         48.1708   50.3983   36.1273 C.2         1 MOL       0.0782
      3 C3         49.0735   51.4568   36.3376 C.2         1 MOL       0.0387
      4 N4         50.2094   51.5270   35.6575 N.2         1 MOL      -0.2660
      5 N5         49.7722   49.4621   34.6675 N.pl3       1 MOL      -0.1859
      6 C6         50.5666   50.5383   34.8121 C.2         1 MOL       0.1941
      7 N7         51.6739   50.4419   34.0640 N.2         1 MOL      -0.3175
      8 C8         51.6048   49.2621   33.4275 C.2         1 MOL       0.0787
      9 C9         50.4342   48.6284   33.8419 C.2         1 MOL       0.0743
     10 C10        52.5629   48.7828   32.5478 C.2         1 MOL       0.1958
     11 O11        52.8861   47.6152   32.7430 O.2         1 MOL      -0.3941
     12 N12        53.1324   49.4942   31.5584 N.am        1 MOL      -0.2710
     13 C13        48.8963   52.5133   37.3303 C.3         1 MOL      -0.0096
     14 C14        47.7132   48.3369   34.9030 C.ar        1 MOL       0.0400
     15 C15        46.8169   50.4655   36.7028 C.3         1 MOL       0.0036
     16 N16        45.9591   51.3812   35.9347 N.4         1 MOL       0.2296
     17 C17        47.2725   47.4193   35.8912 C.ar        1 MOL      -0.0470
     18 C18        46.4985   46.3037   35.5417 C.ar        1 MOL      -0.0451
     19 C19        46.1152   46.1013   34.2050 C.ar        1 MOL       0.0429
     20 C20        46.5356   47.0031   33.2147 C.ar        1 MOL      -0.0313
     21 C21        47.3293   48.1177   33.5509 C.ar        1 MOL       0.0551
     22 CL22       47.7729   49.1725   32.2938 Cl          1 MOL      -0.0670
     23 CL23       45.1266   44.7825   33.8241 Cl          1 MOL      -0.0685
     24 C24        52.5924   50.7454   31.0402 C.3         1 MOL       0.0564
     25 C25        53.6879   51.8369   31.0701 C.3         1 MOL       0.0680
     26 O26        54.8652   51.3905   30.3671 O.3         1 MOL      -0.3758
     27 C27        55.3989   50.1442   30.8595 C.3         1 MOL       0.0680
     28 C28        54.3193   49.0286   30.8559 C.3         1 MOL       0.0564
     29 H1         50.1137   47.7054   33.5294 H           1 MOL       0.0902
     30 H2         49.6991   53.2586   37.3000 H           1 MOL       0.0451
     31 H3         48.8883   52.0818   38.3329 H           1 MOL       0.0451
     32 H4         47.9570   53.0387   37.1640 H           1 MOL       0.0451
     33 H5         46.8628   50.8030   37.7404 H           1 MOL       0.0958
     34 H6         46.3046   49.5074   36.7380 H           1 MOL       0.0958
     35 H7         45.0857   51.5413   36.4460 H           1 MOL       0.2006
     36 H8         45.7437   50.9691   35.0253 H           1 MOL       0.2006
     37 H9         46.4292   52.2825   35.7902 H           1 MOL       0.2006
     38 H10        47.5195   47.5560   36.8777 H           1 MOL       0.0642
     39 H11        46.1938   45.6525   36.2701 H           1 MOL       0.0629
     40 H12        46.2631   46.8480   32.2400 H           1 MOL       0.0634
     41 H13        51.7129   51.1134   31.5646 H           1 MOL       0.0544
     42 H14        52.2877   50.5880   30.0044 H           1 MOL       0.0544
     43 H15        53.9396   52.0946   32.1045 H           1 MOL       0.0580
     44 H16        53.3178   52.7404   30.5791 H           1 MOL       0.0580
     45 H17        55.7915   50.2838   31.8731 H           1 MOL       0.0580
     46 H18        56.2288   49.8483   30.2153 H           1 MOL       0.0580
     47 H19        54.0545   48.7923   29.8232 H           1 MOL       0.0544
     48 H20        54.7667   48.1298   31.2914 H           1 MOL       0.0544
@<TRIPOS>BOND
     1     1     2   2
     2     1     5   1
     3     1    14   1
     4     2     3   1
     5     2    15   1
     6     3     4   2
     7     3    13   1
     8     4     6   1
     9     5     6   1
    10     5     9   1
    11     6     7   2
    12     7     8   1
    13     8     9   2
    14     8    10   1
    15    10    11   2
    16    10    12  am
    17    12    24   1
    18    12    28   1
    19    14    17  ar
    20    14    21  ar
    21    15    16   1
    22    17    18  ar
    23    18    19  ar
    24    19    20  ar
    25    19    23   1
    26    20    21  ar
    27    21    22   1
    28    24    25   1
    29    25    26   1
    30    26    27   1
    31    27    28   1
    32     9    29   1
    33    13    30   1
    34    13    31   1
    35    13    32   1
    36    15    33   1
    37    15    34   1
    38    16    35   1
    39    16    36   1
    40    16    37   1
    41    17    38   1
    42    18    39   1
    43    20    40   1
    44    24    41   1
    45    24    42   1
    46    25    43   1
    47    25    44   1
    48    27    45   1
    49    27    46   1
    50    28    47   1
    51    28    48   1
@<TRIPOS>SUBSTRUCTURE
     1  MOL      1

