@<TRIPOS>MOLECULE
3nox_ligand_051
    48    51
SMALL
GAST_HUCK
****
This file was generated by PARSER (from files_GN.cpp)

@<TRIPOS>ATOM
      1 C1         50.6977   47.6231   33.1458 C.2         1 MOL       0.1404
      2 C2         50.3352   46.4326   32.5794 C.2         1 MOL       0.0782
      3 C3         51.2382   45.3562   32.6804 C.2         1 MOL       0.0387
      4 N4         52.4238   45.5220   33.2584 N.2         1 MOL      -0.2660
      5 N5         51.9086   47.7373   33.7525 N.pl3       1 MOL      -0.1859
      6 C6         52.7770   46.7087   33.7877 C.2         1 MOL       0.1941
      7 N7         53.9294   47.0536   34.3829 N.2         1 MOL      -0.3175
      8 C8         53.7904   48.3387   34.7508 C.2         1 MOL       0.0787
      9 C9         52.5216   48.7649   34.3734 C.2         1 MOL       0.0743
     10 C10        54.7308   49.1355   35.3664 C.2         1 MOL       0.1958
     11 O11        54.3438   49.6058   36.4298 O.2         1 MOL      -0.3941
     12 N12        55.9059   49.5011   34.8260 N.am        1 MOL      -0.2710
     13 C13        50.9779   44.0078   32.1955 C.3         1 MOL      -0.0096
     14 C14        49.9184   48.7833   33.0610 C.ar        1 MOL       0.0400
     15 C15        49.0531   46.2723   31.8605 C.3         1 MOL       0.0036
     16 N16        48.0463   45.6593   32.7362 N.4         1 MOL       0.2296
     17 C17        48.7345   48.8860   33.8255 C.ar        1 MOL      -0.0470
     18 C18        47.9470   50.0506   33.7719 C.ar        1 MOL      -0.0451
     19 C19        48.3503   51.1374   32.9739 C.ar        1 MOL       0.0429
     20 C20        49.5346   51.0521   32.2211 C.ar        1 MOL      -0.0313
     21 C21        50.3186   49.8785   32.2496 C.ar        1 MOL       0.0551
     22 CL22       51.7090   49.8352   31.2733 Cl          1 MOL      -0.0670
     23 CL23       47.4075   52.5415   32.9113 Cl          1 MOL      -0.0685
     24 C24        56.3429   49.1237   33.4869 C.3         1 MOL       0.0564
     25 C25        57.7845   48.5524   33.5394 C.3         1 MOL       0.0680
     26 O26        58.6781   49.4608   34.2151 O.3         1 MOL      -0.3758
     27 C27        58.2472   49.8214   35.5428 C.3         1 MOL       0.0680
     28 C28        56.8099   50.4055   35.5186 C.3         1 MOL       0.0564
     29 H1         52.1470   49.7049   34.5037 H           1 MOL       0.0902
     30 H2         51.7887   43.3141   32.4389 H           1 MOL       0.0451
     31 H3         50.8625   44.0092   31.1105 H           1 MOL       0.0451
     32 H4         50.0667   43.6192   32.6556 H           1 MOL       0.0451
     33 H5         49.1646   45.6539   30.9702 H           1 MOL       0.0958
     34 H6         48.6501   47.2197   31.5030 H           1 MOL       0.0958
     35 H7         47.1641   45.5685   32.2278 H           1 MOL       0.2006
     36 H8         47.9035   46.2471   33.5601 H           1 MOL       0.2006
     37 H9         48.3623   44.7336   33.0321 H           1 MOL       0.2006
     38 H10        48.4317   48.1139   34.4258 H           1 MOL       0.0642
     39 H11        47.0849   50.1011   34.3179 H           1 MOL       0.0629
     40 H12        49.8275   51.8459   31.6461 H           1 MOL       0.0634
     41 H13        56.3408   50.0140   32.8504 H           1 MOL       0.0544
     42 H14        55.7032   48.3857   32.9998 H           1 MOL       0.0544
     43 H15        58.1530   48.4061   32.5201 H           1 MOL       0.0580
     44 H16        57.7812   47.5794   34.0401 H           1 MOL       0.0580
     45 H17        58.9345   50.5747   35.9373 H           1 MOL       0.0580
     46 H18        58.2870   48.9508   36.2028 H           1 MOL       0.0580
     47 H19        56.5244   50.6092   36.5533 H           1 MOL       0.0544
     48 H20        56.8249   51.3664   34.9936 H           1 MOL       0.0544
@<TRIPOS>BOND
     1     1     2   2
     2     1     5   1
     3     1    14   1
     4     2     3   1
     5     2    15   1
     6     3     4   2
     7     3    13   1
     8     4     6   1
     9     5     6   1
    10     5     9   1
    11     6     7   2
    12     7     8   1
    13     8     9   2
    14     8    10   1
    15    10    11   2
    16    10    12  am
    17    12    24   1
    18    12    28   1
    19    14    17  ar
    20    14    21  ar
    21    15    16   1
    22    17    18  ar
    23    18    19  ar
    24    19    20  ar
    25    19    23   1
    26    20    21  ar
    27    21    22   1
    28    24    25   1
    29    25    26   1
    30    26    27   1
    31    27    28   1
    32     9    29   1
    33    13    30   1
    34    13    31   1
    35    13    32   1
    36    15    33   1
    37    15    34   1
    38    16    35   1
    39    16    36   1
    40    16    37   1
    41    17    38   1
    42    18    39   1
    43    20    40   1
    44    24    41   1
    45    24    42   1
    46    25    43   1
    47    25    44   1
    48    27    45   1
    49    27    46   1
    50    28    47   1
    51    28    48   1
@<TRIPOS>SUBSTRUCTURE
     1  MOL      1

