@<TRIPOS>MOLECULE
3nox_ligand_045
    48    51
SMALL
GAST_HUCK
****
This file was generated by PARSER (from files_GN.cpp)

@<TRIPOS>ATOM
      1 C1         48.4636   52.4568   30.1442 C.2         1 MOL       0.1404
      2 C2         47.4555   53.1249   29.5033 C.2         1 MOL       0.0782
      3 C3         47.7198   53.7045   28.2485 C.2         1 MOL       0.0387
      4 N4         48.9318   53.6260   27.7197 N.2         1 MOL      -0.2660
      5 N5         49.7071   52.4160   29.5578 N.pl3       1 MOL      -0.1859
      6 C6         49.9275   52.9921   28.3651 C.2         1 MOL       0.1941
      7 N7         51.1916   52.8382   27.9489 N.2         1 MOL      -0.3175
      8 C8         51.8157   52.1449   28.9104 C.2         1 MOL       0.0787
      9 C9         50.8982   51.8974   29.9293 C.2         1 MOL       0.0743
     10 C10        53.1408   51.7572   28.8149 C.2         1 MOL       0.1958
     11 O11        53.9171   52.6941   28.8784 O.2         1 MOL      -0.3941
     12 N12        53.5579   50.5146   28.4893 N.am        1 MOL      -0.2710
     13 C13        46.7349   54.3507   27.3837 C.3         1 MOL      -0.0096
     14 C14        48.3168   51.8065   31.3873 C.ar        1 MOL       0.0400
     15 C15        46.1016   53.2747   30.0797 C.3         1 MOL       0.0036
     16 N16        45.9424   54.6039   30.6925 N.4         1 MOL       0.2296
     17 C17        47.9151   52.5714   32.5165 C.ar        1 MOL      -0.0470
     18 C18        47.7378   51.9826   33.7776 C.ar        1 MOL      -0.0451
     19 C19        47.9821   50.6076   33.9495 C.ar        1 MOL       0.0429
     20 C20        48.3965   49.8339   32.8463 C.ar        1 MOL      -0.0313
     21 C21        48.5476   50.4195   31.5698 C.ar        1 MOL       0.0551
     22 CL22       48.9562   49.3935   30.2732 Cl          1 MOL      -0.0670
     23 CL23       47.7493   49.8874   35.4642 Cl          1 MOL      -0.0685
     24 C24        52.6666   49.3800   28.3009 C.3         1 MOL       0.0564
     25 C25        53.1539   48.1769   29.1462 C.3         1 MOL       0.0680
     26 O26        54.5370   47.8792   28.8656 O.3         1 MOL      -0.3758
     27 C27        55.4184   48.9995   29.0724 C.3         1 MOL       0.0680
     28 C28        54.9639   50.2206   28.2337 C.3         1 MOL       0.0564
     29 H1         51.1069   51.4041   30.8053 H           1 MOL       0.0902
     30 H2         47.1771   54.7312   26.4589 H           1 MOL       0.0451
     31 H3         46.2736   55.1962   27.8899 H           1 MOL       0.0451
     32 H4         45.9584   53.6385   27.1021 H           1 MOL       0.0451
     33 H5         45.8883   52.5365   30.8530 H           1 MOL       0.0958
     34 H6         45.3309   53.1228   29.3244 H           1 MOL       0.0958
     35 H7         45.0550   54.6370   31.1955 H           1 MOL       0.2006
     36 H8         45.9700   55.3423   29.9866 H           1 MOL       0.2006
     37 H9         46.6976   54.7666   31.3583 H           1 MOL       0.2006
     38 H10        47.7363   53.5685   32.4261 H           1 MOL       0.0642
     39 H11        47.4244   52.5684   34.5576 H           1 MOL       0.0629
     40 H12        48.5732   48.8355   32.9784 H           1 MOL       0.0634
     41 H13        52.6733   49.0987   27.2448 H           1 MOL       0.0544
     42 H14        51.6284   49.5816   28.5682 H           1 MOL       0.0544
     43 H15        52.5610   47.2952   28.8988 H           1 MOL       0.0580
     44 H16        53.0237   48.3844   30.2120 H           1 MOL       0.0580
     45 H17        56.4238   48.7048   28.7660 H           1 MOL       0.0580
     46 H18        55.4514   49.2600   30.1334 H           1 MOL       0.0580
     47 H19        55.6424   51.0480   28.4547 H           1 MOL       0.0544
     48 H20        55.0840   49.9818   27.1731 H           1 MOL       0.0544
@<TRIPOS>BOND
     1     1     2   2
     2     1     5   1
     3     1    14   1
     4     2     3   1
     5     2    15   1
     6     3     4   2
     7     3    13   1
     8     4     6   1
     9     5     6   1
    10     5     9   1
    11     6     7   2
    12     7     8   1
    13     8     9   2
    14     8    10   1
    15    10    11   2
    16    10    12  am
    17    12    24   1
    18    12    28   1
    19    14    17  ar
    20    14    21  ar
    21    15    16   1
    22    17    18  ar
    23    18    19  ar
    24    19    20  ar
    25    19    23   1
    26    20    21  ar
    27    21    22   1
    28    24    25   1
    29    25    26   1
    30    26    27   1
    31    27    28   1
    32     9    29   1
    33    13    30   1
    34    13    31   1
    35    13    32   1
    36    15    33   1
    37    15    34   1
    38    16    35   1
    39    16    36   1
    40    16    37   1
    41    17    38   1
    42    18    39   1
    43    20    40   1
    44    24    41   1
    45    24    42   1
    46    25    43   1
    47    25    44   1
    48    27    45   1
    49    27    46   1
    50    28    47   1
    51    28    48   1
@<TRIPOS>SUBSTRUCTURE
     1  MOL      1

