@<TRIPOS>MOLECULE
3nox_ligand_078
    48    51
SMALL
GAST_HUCK
****
This file was generated by PARSER (from files_GN.cpp)

@<TRIPOS>ATOM
      1 C1         46.6160   50.5270   33.6696 C.2         1 MOL       0.1404
      2 C2         45.7416   50.8754   32.6748 C.2         1 MOL       0.0782
      3 C3         44.3924   51.0572   33.0298 C.2         1 MOL       0.0387
      4 N4         43.9705   50.7852   34.2594 N.2         1 MOL      -0.2660
      5 N5         46.1541   50.3353   34.9410 N.pl3       1 MOL      -0.1859
      6 C6         44.8447   50.4408   35.2303 C.2         1 MOL       0.1941
      7 N7         44.6187   50.1457   36.5199 N.2         1 MOL      -0.3175
      8 C8         45.8004   49.8364   37.0942 C.2         1 MOL       0.0787
      9 C9         46.7629   50.0035   36.0936 C.2         1 MOL       0.0743
     10 C10        45.9273   49.4675   38.4396 C.2         1 MOL       0.1958
     11 O11        44.9705   49.7862   39.1341 O.2         1 MOL      -0.3941
     12 N12        46.9525   48.8346   39.0461 N.am        1 MOL      -0.2710
     13 C13        43.3692   51.5605   32.1234 C.3         1 MOL      -0.0096
     14 C14        47.9778   50.2916   33.4649 C.ar        1 MOL       0.0400
     15 C15        46.1959   51.1214   31.2931 C.3         1 MOL       0.0036
     16 N16        46.6088   52.5184   31.1354 N.4         1 MOL       0.2296
     17 C17        48.8980   51.2541   33.9389 C.ar        1 MOL      -0.0470
     18 C18        50.2794   51.0258   33.8469 C.ar        1 MOL      -0.0451
     19 C19        50.7604   49.8419   33.2614 C.ar        1 MOL       0.0429
     20 C20        49.8551   48.8700   32.7996 C.ar        1 MOL      -0.0313
     21 C21        48.4654   49.0751   32.9165 C.ar        1 MOL       0.0551
     22 CL22       47.4375   47.8120   32.4318 Cl          1 MOL      -0.0670
     23 CL23       52.4281   49.5848   33.1341 Cl          1 MOL      -0.0685
     24 C24        47.1958   48.9305   40.4851 C.3         1 MOL       0.0564
     25 C25        48.5813   49.5942   40.7094 C.3         1 MOL       0.0680
     26 O26        49.6113   48.9428   39.9364 O.3         1 MOL      -0.3758
     27 C27        49.3085   48.8325   38.5275 C.3         1 MOL       0.0680
     28 C28        47.9698   48.0828   38.3364 C.3         1 MOL       0.0564
     29 H1         47.7701   49.8770   36.2071 H           1 MOL       0.0902
     30 H2         42.4277   51.7555   32.6431 H           1 MOL       0.0451
     31 H3         43.1755   50.8290   31.3375 H           1 MOL       0.0451
     32 H4         43.6894   52.5006   31.6685 H           1 MOL       0.0451
     33 H5         45.4170   50.9082   30.5621 H           1 MOL       0.0958
     34 H6         47.0317   50.4841   31.0030 H           1 MOL       0.0958
     35 H7         46.9306   52.6703   30.1786 H           1 MOL       0.2006
     36 H8         47.3683   52.7242   31.7852 H           1 MOL       0.2006
     37 H9         45.8198   53.1378   31.3286 H           1 MOL       0.2006
     38 H10        48.5635   52.1123   34.3859 H           1 MOL       0.0642
     39 H11        50.9292   51.7158   34.2237 H           1 MOL       0.0629
     40 H12        50.2097   48.0004   32.3980 H           1 MOL       0.0634
     41 H13        47.1935   47.9313   40.9310 H           1 MOL       0.0544
     42 H14        46.4554   49.5198   41.0297 H           1 MOL       0.0544
     43 H15        48.8596   49.5269   41.7627 H           1 MOL       0.0580
     44 H16        48.5287   50.6548   40.4493 H           1 MOL       0.0580
     45 H17        50.1087   48.2854   38.0290 H           1 MOL       0.0580
     46 H18        49.2567   49.8305   38.0796 H           1 MOL       0.0580
     47 H19        47.7694   47.9227   37.2768 H           1 MOL       0.0544
     48 H20        48.0575   47.0840   38.7804 H           1 MOL       0.0544
@<TRIPOS>BOND
     1     1     2   2
     2     1     5   1
     3     1    14   1
     4     2     3   1
     5     2    15   1
     6     3     4   2
     7     3    13   1
     8     4     6   1
     9     5     6   1
    10     5     9   1
    11     6     7   2
    12     7     8   1
    13     8     9   2
    14     8    10   1
    15    10    11   2
    16    10    12  am
    17    12    24   1
    18    12    28   1
    19    14    17  ar
    20    14    21  ar
    21    15    16   1
    22    17    18  ar
    23    18    19  ar
    24    19    20  ar
    25    19    23   1
    26    20    21  ar
    27    21    22   1
    28    24    25   1
    29    25    26   1
    30    26    27   1
    31    27    28   1
    32     9    29   1
    33    13    30   1
    34    13    31   1
    35    13    32   1
    36    15    33   1
    37    15    34   1
    38    16    35   1
    39    16    36   1
    40    16    37   1
    41    17    38   1
    42    18    39   1
    43    20    40   1
    44    24    41   1
    45    24    42   1
    46    25    43   1
    47    25    44   1
    48    27    45   1
    49    27    46   1
    50    28    47   1
    51    28    48   1
@<TRIPOS>SUBSTRUCTURE
     1  MOL      1

