@<TRIPOS>MOLECULE
3nox_ligand_020
    48    51
SMALL
GAST_HUCK
****
This file was generated by PARSER (from files_GN.cpp)

@<TRIPOS>ATOM
      1 C1         46.5943   49.5342   31.6032 C.2         1 MOL       0.1404
      2 C2         47.2372   50.6691   32.0328 C.2         1 MOL       0.0782
      3 C3         46.9103   51.8893   31.4060 C.2         1 MOL       0.0387
      4 N4         46.0082   51.9264   30.4362 N.2         1 MOL      -0.2660
      5 N5         45.6823   49.6227   30.5922 N.pl3       1 MOL      -0.1859
      6 C6         45.3892   50.8068   30.0233 C.2         1 MOL       0.1941
      7 N7         44.4858   50.6851   29.0448 N.2         1 MOL      -0.3175
      8 C8         44.1965   49.3766   28.9507 C.2         1 MOL       0.0787
      9 C9         44.9326   48.7114   29.9345 C.2         1 MOL       0.0743
     10 C10        43.3183   48.8750   28.0052 C.2         1 MOL       0.1958
     11 O11        42.2314   49.4408   28.0161 O.2         1 MOL      -0.3941
     12 N12        43.6265   48.0145   27.0086 N.am        1 MOL      -0.2710
     13 C13        47.5126   53.1811   31.7128 C.3         1 MOL      -0.0096
     14 C14        46.8075   48.2723   32.1699 C.ar        1 MOL       0.0400
     15 C15        48.1811   50.6593   33.1705 C.3         1 MOL       0.0036
     16 N16        47.5310   51.1000   34.4105 N.4         1 MOL       0.2296
     17 C17        45.8726   47.7805   33.1111 C.ar        1 MOL      -0.0470
     18 C18        46.0280   46.5057   33.6845 C.ar        1 MOL      -0.0451
     19 C19        47.1197   45.6980   33.3226 C.ar        1 MOL       0.0429
     20 C20        48.0618   46.1741   32.3908 C.ar        1 MOL      -0.0313
     21 C21        47.9091   47.4481   31.8057 C.ar        1 MOL       0.0551
     22 CL22       49.0707   47.9350   30.6668 Cl          1 MOL      -0.0670
     23 CL23       47.2734   44.1404   33.9732 Cl          1 MOL      -0.0685
     24 C24        42.6601   47.6560   25.9770 C.3         1 MOL       0.0564
     25 C25        42.6331   46.1220   25.7681 C.3         1 MOL       0.0680
     26 O26        43.9603   45.6164   25.5224 O.3         1 MOL      -0.3758
     27 C27        44.9014   45.9449   26.5633 C.3         1 MOL       0.0680
     28 C28        44.9605   47.4773   26.7812 C.3         1 MOL       0.0564
     29 H1         44.9175   47.7043   30.1046 H           1 MOL       0.0902
     30 H2         47.0895   53.9905   31.1114 H           1 MOL       0.0451
     31 H3         48.5853   53.1553   31.5114 H           1 MOL       0.0451
     32 H4         47.3471   53.4295   32.7616 H           1 MOL       0.0451
     33 H5         49.0328   51.3133   32.9792 H           1 MOL       0.0958
     34 H6         48.6140   49.6767   33.3612 H           1 MOL       0.0958
     35 H7         48.2104   51.0658   35.1748 H           1 MOL       0.2006
     36 H8         46.7489   50.4814   34.6360 H           1 MOL       0.2006
     37 H9         47.1893   52.0583   34.3074 H           1 MOL       0.2006
     38 H10        45.0630   48.3441   33.3843 H           1 MOL       0.0642
     39 H11        45.3341   46.1643   34.3540 H           1 MOL       0.0629
     40 H12        48.8567   45.5824   32.1316 H           1 MOL       0.0634
     41 H13        42.9569   48.1315   25.0377 H           1 MOL       0.0544
     42 H14        41.6397   47.9854   26.1932 H           1 MOL       0.0544
     43 H15        42.0149   45.8832   24.9013 H           1 MOL       0.0580
     44 H16        42.1972   45.6315   26.6437 H           1 MOL       0.0580
     45 H17        45.8878   45.5837   26.2628 H           1 MOL       0.0580
     46 H18        44.6228   45.4428   27.4932 H           1 MOL       0.0580
     47 H19        45.6719   47.6753   27.5799 H           1 MOL       0.0544
     48 H20        45.3722   47.9414   25.8801 H           1 MOL       0.0544
@<TRIPOS>BOND
     1     1     2   2
     2     1     5   1
     3     1    14   1
     4     2     3   1
     5     2    15   1
     6     3     4   2
     7     3    13   1
     8     4     6   1
     9     5     6   1
    10     5     9   1
    11     6     7   2
    12     7     8   1
    13     8     9   2
    14     8    10   1
    15    10    11   2
    16    10    12  am
    17    12    24   1
    18    12    28   1
    19    14    17  ar
    20    14    21  ar
    21    15    16   1
    22    17    18  ar
    23    18    19  ar
    24    19    20  ar
    25    19    23   1
    26    20    21  ar
    27    21    22   1
    28    24    25   1
    29    25    26   1
    30    26    27   1
    31    27    28   1
    32     9    29   1
    33    13    30   1
    34    13    31   1
    35    13    32   1
    36    15    33   1
    37    15    34   1
    38    16    35   1
    39    16    36   1
    40    16    37   1
    41    17    38   1
    42    18    39   1
    43    20    40   1
    44    24    41   1
    45    24    42   1
    46    25    43   1
    47    25    44   1
    48    27    45   1
    49    27    46   1
    50    28    47   1
    51    28    48   1
@<TRIPOS>SUBSTRUCTURE
     1  MOL      1

