@<TRIPOS>MOLECULE
3nox_ligand_005
    48    51
SMALL
GAST_HUCK
****
This file was generated by PARSER (from files_GN.cpp)

@<TRIPOS>ATOM
      1 C1         46.9308   49.5622   34.1051 C.2         1 MOL       0.1404
      2 C2         46.9714   49.4678   35.4723 C.2         1 MOL       0.0782
      3 C3         47.0421   48.1803   36.0360 C.2         1 MOL       0.0387
      4 N4         47.0286   47.1028   35.2592 N.2         1 MOL      -0.2660
      5 N5         46.9516   48.4310   33.3489 N.pl3       1 MOL      -0.1859
      6 C6         46.9859   47.2147   33.9173 C.2         1 MOL       0.1941
      7 N7         46.9879   46.2502   32.9912 N.2         1 MOL      -0.3175
      8 C8         46.9869   46.8414   31.7812 C.2         1 MOL       0.0787
      9 C9         46.9351   48.2172   32.0192 C.2         1 MOL       0.0743
     10 C10        46.9748   46.2099   30.5381 C.2         1 MOL       0.1958
     11 O11        46.4877   46.8890   29.6378 O.2         1 MOL      -0.3941
     12 N12        47.3896   44.9553   30.2588 N.am        1 MOL      -0.2710
     13 C13        47.2021   47.9108   37.4599 C.3         1 MOL      -0.0096
     14 C14        46.8372   50.7779   33.4278 C.ar        1 MOL       0.0400
     15 C15        46.9093   50.6634   36.3380 C.3         1 MOL       0.0036
     16 N16        45.5461   50.8936   36.8350 N.4         1 MOL       0.2296
     17 C17        45.5682   51.3914   33.3015 C.ar        1 MOL      -0.0470
     18 C18        45.4356   52.6100   32.6182 C.ar        1 MOL      -0.0451
     19 C19        46.5595   53.2291   32.0446 C.ar        1 MOL       0.0429
     20 C20        47.8240   52.6209   32.1558 C.ar        1 MOL      -0.0313
     21 C21        47.9724   51.4020   32.8467 C.ar        1 MOL       0.0551
     22 CL22       49.5343   50.7401   32.9568 Cl          1 MOL      -0.0670
     23 CL23       46.3828   54.6930   31.2165 Cl          1 MOL      -0.0685
     24 C24        48.2234   44.1543   31.1456 C.3         1 MOL       0.0564
     25 C25        49.4753   43.6306   30.3968 C.3         1 MOL       0.0680
     26 O26        49.1132   42.9653   29.1721 O.3         1 MOL      -0.3758
     27 C27        48.3337   43.7938   28.2885 C.3         1 MOL       0.0680
     28 C28        47.0523   44.2939   29.0012 C.3         1 MOL       0.0564
     29 H1         46.9036   48.9433   31.2992 H           1 MOL       0.0902
     30 H2         47.2164   46.8411   37.6828 H           1 MOL       0.0451
     31 H3         46.3829   48.3545   38.0258 H           1 MOL       0.0451
     32 H4         48.1474   48.3281   37.8111 H           1 MOL       0.0451
     33 H5         47.2288   51.5758   35.8303 H           1 MOL       0.0958
     34 H6         47.5796   50.5674   37.1934 H           1 MOL       0.0958
     35 H7         45.5583   51.6954   37.4669 H           1 MOL       0.2006
     36 H8         45.2239   50.0750   37.3513 H           1 MOL       0.2006
     37 H9         44.8994   51.0857   36.0631 H           1 MOL       0.2006
     38 H10        44.7339   50.9556   33.7060 H           1 MOL       0.0642
     39 H11        44.5175   53.0515   32.5455 H           1 MOL       0.0629
     40 H12        48.6384   53.0695   31.7293 H           1 MOL       0.0634
     41 H13        47.6389   43.3065   31.5128 H           1 MOL       0.0544
     42 H14        48.6055   44.6918   32.0101 H           1 MOL       0.0544
     43 H15        50.0064   42.9174   31.0294 H           1 MOL       0.0580
     44 H16        50.1572   44.4589   30.1816 H           1 MOL       0.0580
     45 H17        48.0583   43.1994   27.4151 H           1 MOL       0.0580
     46 H18        48.9284   44.6456   27.9447 H           1 MOL       0.0580
     47 H19        46.4973   44.9168   28.2954 H           1 MOL       0.0544
     48 H20        46.4142   43.4351   29.2221 H           1 MOL       0.0544
@<TRIPOS>BOND
     1     1     2   2
     2     1     5   1
     3     1    14   1
     4     2     3   1
     5     2    15   1
     6     3     4   2
     7     3    13   1
     8     4     6   1
     9     5     6   1
    10     5     9   1
    11     6     7   2
    12     7     8   1
    13     8     9   2
    14     8    10   1
    15    10    11   2
    16    10    12  am
    17    12    24   1
    18    12    28   1
    19    14    17  ar
    20    14    21  ar
    21    15    16   1
    22    17    18  ar
    23    18    19  ar
    24    19    20  ar
    25    19    23   1
    26    20    21  ar
    27    21    22   1
    28    24    25   1
    29    25    26   1
    30    26    27   1
    31    27    28   1
    32     9    29   1
    33    13    30   1
    34    13    31   1
    35    13    32   1
    36    15    33   1
    37    15    34   1
    38    16    35   1
    39    16    36   1
    40    16    37   1
    41    17    38   1
    42    18    39   1
    43    20    40   1
    44    24    41   1
    45    24    42   1
    46    25    43   1
    47    25    44   1
    48    27    45   1
    49    27    46   1
    50    28    47   1
    51    28    48   1
@<TRIPOS>SUBSTRUCTURE
     1  MOL      1

