@<TRIPOS>MOLECULE
3nox_ligand_044
    48    51
SMALL
GAST_HUCK
****
This file was generated by PARSER (from files_GN.cpp)

@<TRIPOS>ATOM
      1 C1         48.3226   50.2518   34.3031 C.2         1 MOL       0.1404
      2 C2         48.0655   50.7847   35.5424 C.2         1 MOL       0.0782
      3 C3         49.1666   51.2275   36.3038 C.2         1 MOL       0.0387
      4 N4         50.4000   51.1742   35.8105 N.2         1 MOL      -0.2660
      5 N5         49.6158   50.1996   33.8488 N.pl3       1 MOL      -0.1859
      6 C6         50.6381   50.6732   34.5854 C.2         1 MOL       0.1941
      7 N7         51.8150   50.5765   33.9430 N.2         1 MOL      -0.3175
      8 C8         51.5438   50.0022   32.7626 C.2         1 MOL       0.0787
      9 C9         50.1753   49.7549   32.7024 C.2         1 MOL       0.0743
     10 C10        52.4514   49.7480   31.7596 C.2         1 MOL       0.1958
     11 O11        52.7177   50.7343   31.0881 O.2         1 MOL      -0.3941
     12 N12        52.9427   48.5311   31.4648 N.am        1 MOL      -0.2710
     13 C13        49.0948   51.7775   37.6499 C.3         1 MOL      -0.0096
     14 C14        47.3183   49.8791   33.3915 C.ar        1 MOL       0.0400
     15 C15        46.6833   50.9067   36.0741 C.3         1 MOL       0.0036
     16 N16        45.7949   51.7319   35.2466 N.4         1 MOL       0.2296
     17 C17        47.1423   50.6768   32.2296 C.ar        1 MOL      -0.0470
     18 C18        46.1262   50.3950   31.3027 C.ar        1 MOL      -0.0451
     19 C19        45.2401   49.3290   31.5352 C.ar        1 MOL       0.0429
     20 C20        45.4127   48.5158   32.6699 C.ar        1 MOL      -0.0313
     21 C21        46.4687   48.7565   33.5728 C.ar        1 MOL       0.0551
     22 CL22       46.6955   47.6048   34.8041 Cl          1 MOL      -0.0670
     23 CL23       43.9908   49.0013   30.4432 Cl          1 MOL      -0.0685
     24 C24        53.7027   48.2882   30.2482 C.3         1 MOL       0.0564
     25 C25        55.0844   47.6850   30.6022 C.3         1 MOL       0.0680
     26 O26        54.9316   46.5204   31.4395 O.3         1 MOL      -0.3758
     27 C27        54.1897   46.7763   32.6490 C.3         1 MOL       0.0680
     28 C28        52.7927   47.3716   32.3313 C.3         1 MOL       0.0564
     29 H1         49.6863   49.3355   31.9084 H           1 MOL       0.0902
     30 H2         50.0746   52.0415   38.0544 H           1 MOL       0.0451
     31 H3         48.6486   51.0458   38.3244 H           1 MOL       0.0451
     32 H4         48.4910   52.6846   37.6419 H           1 MOL       0.0451
     33 H5         46.6363   51.3616   37.0619 H           1 MOL       0.0958
     34 H6         46.2339   49.9193   36.1740 H           1 MOL       0.0958
     35 H7         44.8936   51.8333   35.7165 H           1 MOL       0.2006
     36 H8         45.6409   51.2865   34.3419 H           1 MOL       0.2006
     37 H9         46.2017   52.6563   35.1062 H           1 MOL       0.2006
     38 H10        47.7571   51.4722   32.0480 H           1 MOL       0.0642
     39 H11        46.0254   50.9755   30.4702 H           1 MOL       0.0629
     40 H12        44.7709   47.7352   32.8299 H           1 MOL       0.0634
     41 H13        53.8664   49.1794   29.6360 H           1 MOL       0.0544
     42 H14        53.1551   47.5738   29.6272 H           1 MOL       0.0544
     43 H15        55.7062   48.4335   31.1044 H           1 MOL       0.0580
     44 H16        55.5942   47.3841   29.6841 H           1 MOL       0.0580
     45 H17        54.7519   47.4578   33.2936 H           1 MOL       0.0580
     46 H18        54.0711   45.8306   33.1829 H           1 MOL       0.0580
     47 H19        52.1894   46.6147   31.8211 H           1 MOL       0.0544
     48 H20        52.3013   47.5880   33.2825 H           1 MOL       0.0544
@<TRIPOS>BOND
     1     1     2   2
     2     1     5   1
     3     1    14   1
     4     2     3   1
     5     2    15   1
     6     3     4   2
     7     3    13   1
     8     4     6   1
     9     5     6   1
    10     5     9   1
    11     6     7   2
    12     7     8   1
    13     8     9   2
    14     8    10   1
    15    10    11   2
    16    10    12  am
    17    12    24   1
    18    12    28   1
    19    14    17  ar
    20    14    21  ar
    21    15    16   1
    22    17    18  ar
    23    18    19  ar
    24    19    20  ar
    25    19    23   1
    26    20    21  ar
    27    21    22   1
    28    24    25   1
    29    25    26   1
    30    26    27   1
    31    27    28   1
    32     9    29   1
    33    13    30   1
    34    13    31   1
    35    13    32   1
    36    15    33   1
    37    15    34   1
    38    16    35   1
    39    16    36   1
    40    16    37   1
    41    17    38   1
    42    18    39   1
    43    20    40   1
    44    24    41   1
    45    24    42   1
    46    25    43   1
    47    25    44   1
    48    27    45   1
    49    27    46   1
    50    28    47   1
    51    28    48   1
@<TRIPOS>SUBSTRUCTURE
     1  MOL      1

