@<TRIPOS>MOLECULE
3nox_ligand_028
    48    51
SMALL
GAST_HUCK
****
This file was generated by PARSER (from files_GN.cpp)

@<TRIPOS>ATOM
      1 C1         50.6907   50.4428   34.0722 C.2         1 MOL       0.1404
      2 C2         50.2786   50.7741   32.8087 C.2         1 MOL       0.0782
      3 C3         49.0302   51.4074   32.6748 C.2         1 MOL       0.0387
      4 N4         48.2389   51.5702   33.7302 N.2         1 MOL      -0.2660
      5 N5         49.8734   50.6882   35.1326 N.pl3       1 MOL      -0.1859
      6 C6         48.6415   51.2077   34.9654 C.2         1 MOL       0.1941
      7 N7         47.9865   51.3035   36.1353 N.2         1 MOL      -0.3175
      8 C8         48.8345   50.8693   37.0832 C.2         1 MOL       0.0787
      9 C9         50.0184   50.4884   36.4563 C.2         1 MOL       0.0743
     10 C10        48.5772   50.7735   38.4365 C.2         1 MOL       0.1958
     11 O11        49.2263   51.5592   39.1166 O.2         1 MOL      -0.3941
     12 N12        47.8019   49.8316   39.0105 N.am        1 MOL      -0.2710
     13 C13        48.5226   51.9682   31.4291 C.3         1 MOL      -0.0096
     14 C14        51.9102   49.8140   34.3375 C.ar        1 MOL       0.0400
     15 C15        51.1146   50.4955   31.6227 C.3         1 MOL       0.0036
     16 N16        52.0297   51.6087   31.3508 N.4         1 MOL       0.2296
     17 C17        51.9762   48.4013   34.2911 C.ar        1 MOL      -0.0470
     18 C18        53.1815   47.7336   34.5702 C.ar        1 MOL      -0.0451
     19 C19        54.3338   48.4682   34.9054 C.ar        1 MOL       0.0429
     20 C20        54.2722   49.8725   34.9728 C.ar        1 MOL      -0.0313
     21 C21        53.0677   50.5515   34.6991 C.ar        1 MOL       0.0551
     22 CL22       53.0661   52.2468   34.8186 Cl          1 MOL      -0.0670
     23 CL23       55.7913   47.6662   35.2189 Cl          1 MOL      -0.0685
     24 C24        47.7451   49.6492   40.4551 C.3         1 MOL       0.0564
     25 C25        48.3558   48.2644   40.7927 C.3         1 MOL       0.0680
     26 O26        47.6841   47.2195   40.0592 O.3         1 MOL      -0.3758
     27 C27        47.6726   47.4242   38.6307 C.3         1 MOL       0.0680
     28 C28        47.0827   48.8106   38.2633 C.3         1 MOL       0.0564
     29 H1         50.8406   50.0957   36.9188 H           1 MOL       0.0902
     30 H2         47.5910   52.5225   31.5699 H           1 MOL       0.0451
     31 H3         48.3248   51.1690   30.7139 H           1 MOL       0.0451
     32 H4         49.2535   52.6600   31.0058 H           1 MOL       0.0451
     33 H5         50.5154   50.3192   30.7300 H           1 MOL       0.0958
     34 H6         51.7139   49.5921   31.7435 H           1 MOL       0.0958
     35 H7         52.6038   51.3862   30.5355 H           1 MOL       0.2006
     36 H8         52.6378   51.7597   32.1578 H           1 MOL       0.2006
     37 H9         51.4939   52.4565   31.1613 H           1 MOL       0.2006
     38 H10        51.1508   47.8468   34.0446 H           1 MOL       0.0642
     39 H11        53.2165   46.7125   34.5235 H           1 MOL       0.0629
     40 H12        55.1108   50.4027   35.2195 H           1 MOL       0.0634
     41 H13        46.7039   49.6714   40.7906 H           1 MOL       0.0544
     42 H14        48.2772   50.4127   41.0279 H           1 MOL       0.0544
     43 H15        48.2451   48.0596   41.8582 H           1 MOL       0.0580
     44 H16        49.4243   48.2635   40.5593 H           1 MOL       0.0580
     45 H17        47.0711   46.6368   38.1760 H           1 MOL       0.0580
     46 H18        48.6900   47.3409   38.2372 H           1 MOL       0.0580
     47 H19        47.1324   48.9266   37.1801 H           1 MOL       0.0544
     48 H20        46.0228   48.8434   38.5345 H           1 MOL       0.0544
@<TRIPOS>BOND
     1     1     2   2
     2     1     5   1
     3     1    14   1
     4     2     3   1
     5     2    15   1
     6     3     4   2
     7     3    13   1
     8     4     6   1
     9     5     6   1
    10     5     9   1
    11     6     7   2
    12     7     8   1
    13     8     9   2
    14     8    10   1
    15    10    11   2
    16    10    12  am
    17    12    24   1
    18    12    28   1
    19    14    17  ar
    20    14    21  ar
    21    15    16   1
    22    17    18  ar
    23    18    19  ar
    24    19    20  ar
    25    19    23   1
    26    20    21  ar
    27    21    22   1
    28    24    25   1
    29    25    26   1
    30    26    27   1
    31    27    28   1
    32     9    29   1
    33    13    30   1
    34    13    31   1
    35    13    32   1
    36    15    33   1
    37    15    34   1
    38    16    35   1
    39    16    36   1
    40    16    37   1
    41    17    38   1
    42    18    39   1
    43    20    40   1
    44    24    41   1
    45    24    42   1
    46    25    43   1
    47    25    44   1
    48    27    45   1
    49    27    46   1
    50    28    47   1
    51    28    48   1
@<TRIPOS>SUBSTRUCTURE
     1  MOL      1

