@<TRIPOS>MOLECULE
3nox_ligand_033
    48    51
SMALL
GAST_HUCK
****
This file was generated by PARSER (from files_GN.cpp)

@<TRIPOS>ATOM
      1 C1         55.3271   46.6348   33.7510 C.2         1 MOL       0.1404
      2 C2         54.3961   47.4762   34.3114 C.2         1 MOL       0.0782
      3 C3         53.0427   47.2545   34.0007 C.2         1 MOL       0.0387
      4 N4         52.6956   46.2875   33.1604 N.2         1 MOL      -0.2660
      5 N5         54.9276   45.6735   32.8773 N.pl3       1 MOL      -0.1859
      6 C6         53.6252   45.4980   32.5854 C.2         1 MOL       0.1941
      7 N7         53.4555   44.4985   31.7046 N.2         1 MOL      -0.3175
      8 C8         54.6779   44.0255   31.4014 C.2         1 MOL       0.0787
      9 C9         55.5983   44.7478   32.1621 C.2         1 MOL       0.0743
     10 C10        54.9255   42.9449   30.5603 C.2         1 MOL       0.1958
     11 O11        54.0659   42.0761   30.6267 O.2         1 MOL      -0.3941
     12 N12        55.9713   42.7829   29.7272 N.am        1 MOL      -0.2710
     13 C13        51.9347   48.0588   34.5134 C.3         1 MOL      -0.0096
     14 C14        56.6866   46.6883   34.0585 C.ar        1 MOL       0.0400
     15 C15        54.7809   48.5692   35.2207 C.3         1 MOL       0.0036
     16 N16        54.6953   48.1471   36.6237 N.4         1 MOL       0.2296
     17 C17        57.5766   47.2215   33.0964 C.ar        1 MOL      -0.0470
     18 C18        58.9601   47.2433   33.3371 C.ar        1 MOL      -0.0451
     19 C19        59.4705   46.7473   34.5511 C.ar        1 MOL       0.0429
     20 C20        58.5939   46.2090   35.5144 C.ar        1 MOL      -0.0313
     21 C21        57.2068   46.1545   35.2672 C.ar        1 MOL       0.0551
     22 CL22       56.2190   45.3899   36.4198 Cl          1 MOL      -0.0670
     23 CL23       61.1389   46.7722   34.8340 Cl          1 MOL      -0.0685
     24 C24        56.8333   43.8685   29.2903 C.3         1 MOL       0.0564
     25 C25        58.3065   43.5165   29.6108 C.3         1 MOL       0.0680
     26 O26        58.6581   42.2423   29.0296 O.3         1 MOL      -0.3758
     27 C27        57.7917   41.1558   29.4215 C.3         1 MOL       0.0680
     28 C28        56.3034   41.4912   29.1380 C.3         1 MOL       0.0564
     29 H1         56.6089   44.5931   32.1808 H           1 MOL       0.0902
     30 H2         50.9597   47.6664   34.2093 H           1 MOL       0.0451
     31 H3         52.0068   49.0801   34.1363 H           1 MOL       0.0451
     32 H4         51.9510   48.0855   35.6039 H           1 MOL       0.0451
     33 H5         54.1413   49.4412   35.0901 H           1 MOL       0.0958
     34 H6         55.7955   48.9279   35.0394 H           1 MOL       0.0958
     35 H7         54.8575   48.9525   37.2303 H           1 MOL       0.2006
     36 H8         55.4110   47.4435   36.8105 H           1 MOL       0.2006
     37 H9         53.7739   47.7527   36.8194 H           1 MOL       0.2006
     38 H10        57.2244   47.5852   32.2064 H           1 MOL       0.0642
     39 H11        59.5908   47.6133   32.6218 H           1 MOL       0.0629
     40 H12        58.9714   45.8391   36.3907 H           1 MOL       0.0634
     41 H13        56.5934   44.8392   29.7208 H           1 MOL       0.0544
     42 H14        56.7287   43.9899   28.2068 H           1 MOL       0.0544
     43 H15        58.4642   43.4961   30.6914 H           1 MOL       0.0580
     44 H16        58.9621   44.2787   29.1862 H           1 MOL       0.0580
     45 H17        57.9302   40.9367   30.4822 H           1 MOL       0.0580
     46 H18        58.0786   40.2685   28.8533 H           1 MOL       0.0580
     47 H19        56.1490   41.5375   28.0552 H           1 MOL       0.0544
     48 H20        55.6969   40.6627   29.5152 H           1 MOL       0.0544
@<TRIPOS>BOND
     1     1     2   2
     2     1     5   1
     3     1    14   1
     4     2     3   1
     5     2    15   1
     6     3     4   2
     7     3    13   1
     8     4     6   1
     9     5     6   1
    10     5     9   1
    11     6     7   2
    12     7     8   1
    13     8     9   2
    14     8    10   1
    15    10    11   2
    16    10    12  am
    17    12    24   1
    18    12    28   1
    19    14    17  ar
    20    14    21  ar
    21    15    16   1
    22    17    18  ar
    23    18    19  ar
    24    19    20  ar
    25    19    23   1
    26    20    21  ar
    27    21    22   1
    28    24    25   1
    29    25    26   1
    30    26    27   1
    31    27    28   1
    32     9    29   1
    33    13    30   1
    34    13    31   1
    35    13    32   1
    36    15    33   1
    37    15    34   1
    38    16    35   1
    39    16    36   1
    40    16    37   1
    41    17    38   1
    42    18    39   1
    43    20    40   1
    44    24    41   1
    45    24    42   1
    46    25    43   1
    47    25    44   1
    48    27    45   1
    49    27    46   1
    50    28    47   1
    51    28    48   1
@<TRIPOS>SUBSTRUCTURE
     1  MOL      1

