@<TRIPOS>MOLECULE
3nox_ligand_036
    48    51
SMALL
GAST_HUCK
****
This file was generated by PARSER (from files_GN.cpp)

@<TRIPOS>ATOM
      1 C1         57.3988   45.1059   32.7557 C.2         1 MOL       0.1404
      2 C2         58.7302   44.7808   32.7813 C.2         1 MOL       0.0782
      3 C3         59.2490   44.0546   31.6931 C.2         1 MOL       0.0387
      4 N4         58.4710   43.7261   30.6671 N.2         1 MOL      -0.2660
      5 N5         56.6276   44.6870   31.7151 N.pl3       1 MOL      -0.1859
      6 C6         57.1631   44.0418   30.6616 C.2         1 MOL       0.1941
      7 N7         56.2507   43.7913   29.7120 N.2         1 MOL      -0.3175
      8 C8         55.0817   44.2472   30.1893 C.2         1 MOL       0.0787
      9 C9         55.3128   44.8001   31.4478 C.2         1 MOL       0.0743
     10 C10        53.8778   44.2111   29.5202 C.2         1 MOL       0.1958
     11 O11        53.9147   44.7325   28.4122 O.2         1 MOL      -0.3941
     12 N12        52.7441   43.6627   29.9946 N.am        1 MOL      -0.2710
     13 C13        60.6320   43.6199   31.5592 C.3         1 MOL      -0.0096
     14 C14        56.8000   45.9644   33.6871 C.ar        1 MOL       0.0400
     15 C15        59.5931   45.2012   33.9044 C.3         1 MOL       0.0036
     16 N16        59.2952   44.4608   35.1389 N.4         1 MOL       0.2296
     17 C17        56.0863   45.4119   34.7761 C.ar        1 MOL      -0.0470
     18 C18        55.4648   46.2436   35.7235 C.ar        1 MOL      -0.0451
     19 C19        55.5234   47.6408   35.5810 C.ar        1 MOL       0.0429
     20 C20        56.2178   48.2046   34.4952 C.ar        1 MOL      -0.0313
     21 C21        56.8520   47.3780   33.5449 C.ar        1 MOL       0.0551
     22 CL22       57.6525   48.1370   32.2522 Cl          1 MOL      -0.0670
     23 CL23       54.7412   48.6383   36.7025 Cl          1 MOL      -0.0685
     24 C24        52.7020   42.7646   31.1404 C.3         1 MOL       0.0564
     25 C25        51.6178   43.2240   32.1450 C.3         1 MOL       0.0680
     26 O26        50.3501   43.4150   31.4842 O.3         1 MOL      -0.3758
     27 C27        50.4150   44.3347   30.3757 C.3         1 MOL       0.0680
     28 C28        51.4635   43.8664   29.3353 C.3         1 MOL       0.0564
     29 H1         54.6058   45.2332   32.0460 H           1 MOL       0.0902
     30 H2         60.7948   43.0112   30.6647 H           1 MOL       0.0451
     31 H3         60.9208   43.0175   32.4221 H           1 MOL       0.0451
     32 H4         61.2815   44.4927   31.4903 H           1 MOL       0.0451
     33 H5         59.4662   46.2675   34.0976 H           1 MOL       0.0958
     34 H6         60.6563   45.0646   33.7134 H           1 MOL       0.0958
     35 H7         59.8661   44.8416   35.8958 H           1 MOL       0.2006
     36 H8         59.5120   43.4656   35.0338 H           1 MOL       0.2006
     37 H9         58.3116   44.5662   35.3862 H           1 MOL       0.2006
     38 H10        56.0215   44.3973   34.8956 H           1 MOL       0.0642
     39 H11        54.9704   45.8257   36.5152 H           1 MOL       0.0629
     40 H12        56.2595   49.2230   34.3981 H           1 MOL       0.0634
     41 H13        53.6463   42.6679   31.6765 H           1 MOL       0.0544
     42 H14        52.4478   41.7628   30.7845 H           1 MOL       0.0544
     43 H15        51.9282   44.1493   32.6376 H           1 MOL       0.0580
     44 H16        51.4930   42.4570   32.9117 H           1 MOL       0.0580
     45 H17        50.6626   45.3383   30.7338 H           1 MOL       0.0580
     46 H18        49.4304   44.3777   29.9053 H           1 MOL       0.0580
     47 H19        51.1341   42.9210   28.8945 H           1 MOL       0.0544
     48 H20        51.4928   44.6094   28.5344 H           1 MOL       0.0544
@<TRIPOS>BOND
     1     1     2   2
     2     1     5   1
     3     1    14   1
     4     2     3   1
     5     2    15   1
     6     3     4   2
     7     3    13   1
     8     4     6   1
     9     5     6   1
    10     5     9   1
    11     6     7   2
    12     7     8   1
    13     8     9   2
    14     8    10   1
    15    10    11   2
    16    10    12  am
    17    12    24   1
    18    12    28   1
    19    14    17  ar
    20    14    21  ar
    21    15    16   1
    22    17    18  ar
    23    18    19  ar
    24    19    20  ar
    25    19    23   1
    26    20    21  ar
    27    21    22   1
    28    24    25   1
    29    25    26   1
    30    26    27   1
    31    27    28   1
    32     9    29   1
    33    13    30   1
    34    13    31   1
    35    13    32   1
    36    15    33   1
    37    15    34   1
    38    16    35   1
    39    16    36   1
    40    16    37   1
    41    17    38   1
    42    18    39   1
    43    20    40   1
    44    24    41   1
    45    24    42   1
    46    25    43   1
    47    25    44   1
    48    27    45   1
    49    27    46   1
    50    28    47   1
    51    28    48   1
@<TRIPOS>SUBSTRUCTURE
     1  MOL      1

