@<TRIPOS>MOLECULE
3nox_ligand_041
    48    51
SMALL
GAST_HUCK
****
This file was generated by PARSER (from files_GN.cpp)

@<TRIPOS>ATOM
      1 C1         48.1711   52.4964   30.2844 C.2         1 MOL       0.1404
      2 C2         47.4286   53.1119   29.3101 C.2         1 MOL       0.0782
      3 C3         48.1175   53.7322   28.2516 C.2         1 MOL       0.0387
      4 N4         49.4462   53.7316   28.2194 N.2         1 MOL      -0.2660
      5 N5         49.5277   52.4992   30.1914 N.pl3       1 MOL      -0.1859
      6 C6         50.1633   53.1207   29.1853 C.2         1 MOL       0.1941
      7 N7         51.5009   53.0066   29.3050 N.2         1 MOL      -0.3175
      8 C8         51.7241   52.2862   30.4110 C.2         1 MOL       0.0787
      9 C9         50.4909   51.9590   30.9677 C.2         1 MOL       0.0743
     10 C10        52.9570   51.9090   30.9317 C.2         1 MOL       0.1958
     11 O11        53.0503   50.7096   31.1376 O.2         1 MOL      -0.3941
     12 N12        53.9181   52.7542   31.3568 N.am        1 MOL      -0.2710
     13 C13        47.4718   54.3613   27.1062 C.3         1 MOL      -0.0096
     14 C14        47.6115   51.8660   31.3990 C.ar        1 MOL       0.0400
     15 C15        45.9580   53.1825   29.3905 C.3         1 MOL       0.0036
     16 N16        45.5362   54.4216   30.0564 N.4         1 MOL       0.2296
     17 C17        47.2900   52.6458   32.5334 C.ar        1 MOL      -0.0470
     18 C18        46.7689   52.0439   33.6916 C.ar        1 MOL      -0.0451
     19 C19        46.5661   50.6525   33.7313 C.ar        1 MOL       0.0429
     20 C20        46.8957   49.8653   32.6130 C.ar        1 MOL      -0.0313
     21 C21        47.4233   50.4595   31.4473 C.ar        1 MOL       0.0551
     22 CL22       47.8184   49.4420   30.1448 Cl          1 MOL      -0.0670
     23 CL23       45.9301   49.9321   35.1234 Cl          1 MOL      -0.0685
     24 C24        53.8314   54.2064   31.2803 C.3         1 MOL       0.0564
     25 C25        55.1204   54.7820   30.6414 C.3         1 MOL       0.0680
     26 O26        56.2899   54.3169   31.3431 O.3         1 MOL      -0.3758
     27 C27        56.3875   52.8824   31.4012 C.3         1 MOL       0.0680
     28 C28        55.1167   52.2657   32.0374 C.3         1 MOL       0.0564
     29 H1         50.3350   51.4243   31.8225 H           1 MOL       0.0902
     30 H2         48.1893   54.8433   26.4362 H           1 MOL       0.0451
     31 H3         46.7657   55.1232   27.4372 H           1 MOL       0.0451
     32 H4         46.9380   53.6051   26.5291 H           1 MOL       0.0451
     33 H5         45.5322   52.3400   29.9364 H           1 MOL       0.0958
     34 H6         45.4998   53.1445   28.4034 H           1 MOL       0.0958
     35 H7         44.5153   54.4731   30.0646 H           1 MOL       0.2006
     36 H8         45.9099   55.2354   29.5599 H           1 MOL       0.2006
     37 H9         45.8772   54.4306   31.0201 H           1 MOL       0.2006
     38 H10        47.4368   53.6582   32.5277 H           1 MOL       0.0642
     39 H11        46.5483   52.6291   34.5004 H           1 MOL       0.0629
     40 H12        46.7535   48.8523   32.6494 H           1 MOL       0.0634
     41 H13        53.7257   54.6112   32.2920 H           1 MOL       0.0544
     42 H14        52.9846   54.5776   30.7013 H           1 MOL       0.0544
     43 H15        55.0974   55.8732   30.6976 H           1 MOL       0.0580
     44 H16        55.1743   54.4978   29.5860 H           1 MOL       0.0580
     45 H17        57.2535   52.6219   32.0094 H           1 MOL       0.0580
     46 H18        56.5378   52.4733   30.3990 H           1 MOL       0.0580
     47 H19        55.2282   51.1783   32.0165 H           1 MOL       0.0544
     48 H20        55.0658   52.5593   33.0922 H           1 MOL       0.0544
@<TRIPOS>BOND
     1     1     2   2
     2     1     5   1
     3     1    14   1
     4     2     3   1
     5     2    15   1
     6     3     4   2
     7     3    13   1
     8     4     6   1
     9     5     6   1
    10     5     9   1
    11     6     7   2
    12     7     8   1
    13     8     9   2
    14     8    10   1
    15    10    11   2
    16    10    12  am
    17    12    24   1
    18    12    28   1
    19    14    17  ar
    20    14    21  ar
    21    15    16   1
    22    17    18  ar
    23    18    19  ar
    24    19    20  ar
    25    19    23   1
    26    20    21  ar
    27    21    22   1
    28    24    25   1
    29    25    26   1
    30    26    27   1
    31    27    28   1
    32     9    29   1
    33    13    30   1
    34    13    31   1
    35    13    32   1
    36    15    33   1
    37    15    34   1
    38    16    35   1
    39    16    36   1
    40    16    37   1
    41    17    38   1
    42    18    39   1
    43    20    40   1
    44    24    41   1
    45    24    42   1
    46    25    43   1
    47    25    44   1
    48    27    45   1
    49    27    46   1
    50    28    47   1
    51    28    48   1
@<TRIPOS>SUBSTRUCTURE
     1  MOL      1

