@<TRIPOS>MOLECULE
3nox_ligand_010
    48    51
SMALL
GAST_HUCK
****
This file was generated by PARSER (from files_GN.cpp)

@<TRIPOS>ATOM
      1 C1         48.3915   50.4472   34.0552 C.2         1 MOL       0.1404
      2 C2         48.0580   50.7342   35.3527 C.2         1 MOL       0.0782
      3 C3         49.1040   51.1200   36.2210 C.2         1 MOL       0.0387
      4 N4         50.3492   51.2051   35.7785 N.2         1 MOL      -0.2660
      5 N5         49.6917   50.5596   33.6477 N.pl3       1 MOL      -0.1859
      6 C6         50.6607   50.9302   34.4971 C.2         1 MOL       0.1941
      7 N7         51.8515   51.0096   33.8913 N.2         1 MOL      -0.3175
      8 C8         51.6669   50.6907   32.5964 C.2         1 MOL       0.0787
      9 C9         50.3089   50.3711   32.4664 C.2         1 MOL       0.0743
     10 C10        52.6231   50.6791   31.5669 C.2         1 MOL       0.1958
     11 O11        52.3323   49.9076   30.6567 O.2         1 MOL      -0.3941
     12 N12        53.7453   51.4324   31.4435 N.am        1 MOL      -0.2710
     13 C13        48.9542   51.4812   37.6313 C.3         1 MOL      -0.0096
     14 C14        47.4743   49.9929   33.1012 C.ar        1 MOL       0.0400
     15 C15        46.6658   50.6187   35.8614 C.3         1 MOL       0.0036
     16 N16        46.1011   51.9036   36.2912 N.4         1 MOL       0.2296
     17 C17        47.0738   48.6351   33.1397 C.ar        1 MOL      -0.0470
     18 C18        46.1889   48.1232   32.1756 C.ar        1 MOL      -0.0451
     19 C19        45.7126   48.9528   31.1451 C.ar        1 MOL       0.0429
     20 C20        46.1153   50.2994   31.0883 C.ar        1 MOL      -0.0313
     21 C21        46.9904   50.8276   32.0592 C.ar        1 MOL       0.0551
     22 CL22       47.4263   52.4649   31.9210 Cl          1 MOL      -0.0670
     23 CL23       44.6603   48.3326   29.9737 Cl          1 MOL      -0.0685
     24 C24        54.2125   52.4258   32.3994 C.3         1 MOL       0.0564
     25 C25        55.6838   52.1201   32.7903 C.3         1 MOL       0.0680
     26 O26        56.5193   52.0514   31.6161 O.3         1 MOL      -0.3758
     27 C27        56.0655   51.0873   30.6488 C.3         1 MOL       0.0680
     28 C28        54.5918   51.3579   30.2502 C.3         1 MOL       0.0564
     29 H1         49.8542   50.0803   31.5937 H           1 MOL       0.0902
     30 H2         49.9250   51.5954   38.1292 H           1 MOL       0.0451
     31 H3         48.4047   50.7114   38.1766 H           1 MOL       0.0451
     32 H4         48.4346   52.4349   37.7178 H           1 MOL       0.0451
     33 H5         46.6268   49.9166   36.6970 H           1 MOL       0.0958
     34 H6         45.9586   50.2371   35.1228 H           1 MOL       0.0958
     35 H7         45.0844   51.8300   36.3735 H           1 MOL       0.2006
     36 H8         46.3284   52.6340   35.6136 H           1 MOL       0.2006
     37 H9         46.4731   52.1566   37.2034 H           1 MOL       0.2006
     38 H10        47.4255   48.0113   33.8709 H           1 MOL       0.0642
     39 H11        45.9048   47.1444   32.2265 H           1 MOL       0.0629
     40 H12        45.7720   50.8956   30.3321 H           1 MOL       0.0634
     41 H13        53.6320   52.5026   33.3115 H           1 MOL       0.0544
     42 H14        54.1746   53.4138   31.9334 H           1 MOL       0.0544
     43 H15        55.7328   51.1757   33.3412 H           1 MOL       0.0580
     44 H16        56.0695   52.9115   33.4367 H           1 MOL       0.0580
     45 H17        56.1616   50.0766   31.0491 H           1 MOL       0.0580
     46 H18        56.6999   51.1631   29.7630 H           1 MOL       0.0580
     47 H19        54.5399   52.3176   29.7221 H           1 MOL       0.0544
     48 H20        54.2992   50.5894   29.5304 H           1 MOL       0.0544
@<TRIPOS>BOND
     1     1     2   2
     2     1     5   1
     3     1    14   1
     4     2     3   1
     5     2    15   1
     6     3     4   2
     7     3    13   1
     8     4     6   1
     9     5     6   1
    10     5     9   1
    11     6     7   2
    12     7     8   1
    13     8     9   2
    14     8    10   1
    15    10    11   2
    16    10    12  am
    17    12    24   1
    18    12    28   1
    19    14    17  ar
    20    14    21  ar
    21    15    16   1
    22    17    18  ar
    23    18    19  ar
    24    19    20  ar
    25    19    23   1
    26    20    21  ar
    27    21    22   1
    28    24    25   1
    29    25    26   1
    30    26    27   1
    31    27    28   1
    32     9    29   1
    33    13    30   1
    34    13    31   1
    35    13    32   1
    36    15    33   1
    37    15    34   1
    38    16    35   1
    39    16    36   1
    40    16    37   1
    41    17    38   1
    42    18    39   1
    43    20    40   1
    44    24    41   1
    45    24    42   1
    46    25    43   1
    47    25    44   1
    48    27    45   1
    49    27    46   1
    50    28    47   1
    51    28    48   1
@<TRIPOS>SUBSTRUCTURE
     1  MOL      1

