@<TRIPOS>MOLECULE
3nox_ligand_063
    48    51
SMALL
GAST_HUCK
****
This file was generated by PARSER (from files_GN.cpp)

@<TRIPOS>ATOM
      1 C1         54.2776   49.8704   33.5270 C.2         1 MOL       0.1404
      2 C2         54.6798   50.9881   34.2081 C.2         1 MOL       0.0782
      3 C3         53.7251   51.9933   34.4514 C.2         1 MOL       0.0387
      4 N4         52.4757   51.8544   34.0172 N.2         1 MOL      -0.2660
      5 N5         52.9961   49.7866   33.0735 N.pl3       1 MOL      -0.1859
      6 C6         52.0927   50.7522   33.3387 C.2         1 MOL       0.1941
      7 N7         50.8890   50.4556   32.8228 N.2         1 MOL      -0.3175
      8 C8         51.0237   49.2748   32.1984 C.2         1 MOL       0.0787
      9 C9         52.3478   48.8607   32.3404 C.2         1 MOL       0.0743
     10 C10        50.0261   48.6286   31.4869 C.2         1 MOL       0.1958
     11 O11        50.3275   48.3485   30.3343 O.2         1 MOL      -0.3941
     12 N12        48.7922   48.3602   31.9592 N.am        1 MOL      -0.2710
     13 C13        54.0092   53.2684   35.1047 C.3         1 MOL      -0.0096
     14 C14        55.0929   48.7504   33.3291 C.ar        1 MOL       0.0400
     15 C15        56.0549   51.1178   34.7287 C.3         1 MOL       0.0036
     16 N16        56.1319   50.6128   36.1036 N.4         1 MOL       0.2296
     17 C17        55.8203   48.6362   32.1207 C.ar        1 MOL      -0.0470
     18 C18        56.6280   47.5114   31.8766 C.ar        1 MOL      -0.0451
     19 C19        56.7107   46.4833   32.8311 C.ar        1 MOL       0.0429
     20 C20        55.9757   46.5791   34.0296 C.ar        1 MOL      -0.0313
     21 C21        55.1728   47.7091   34.2889 C.ar        1 MOL       0.0551
     22 CL22       54.3179   47.7475   35.7583 Cl          1 MOL      -0.0670
     23 CL23       57.6939   45.1357   32.5441 Cl          1 MOL      -0.0685
     24 C24        48.4677   48.3795   33.3785 C.3         1 MOL       0.0564
     25 C25        47.6251   47.1315   33.7661 C.3         1 MOL       0.0680
     26 O26        46.5909   46.7596   32.8230 O.3         1 MOL      -0.3758
     27 C27        46.3808   47.6538   31.7160 C.3         1 MOL       0.0680
     28 C28        47.7340   47.9831   31.0309 C.3         1 MOL       0.0564
     29 H1         52.7469   47.9896   31.9796 H           1 MOL       0.0902
     30 H2         53.1207   53.8985   35.1965 H           1 MOL       0.0451
     31 H3         54.7450   53.8262   34.5214 H           1 MOL       0.0451
     32 H4         54.4037   53.1035   36.1091 H           1 MOL       0.0451
     33 H5         56.3942   52.1528   34.7127 H           1 MOL       0.0958
     34 H6         56.7873   50.5685   34.1315 H           1 MOL       0.0958
     35 H7         57.0830   50.7404   36.4526 H           1 MOL       0.2006
     36 H8         55.8945   49.6219   36.1223 H           1 MOL       0.2006
     37 H9         55.4825   51.1285   36.6975 H           1 MOL       0.2006
     38 H10        55.7605   49.3685   31.4072 H           1 MOL       0.0642
     39 H11        57.1520   47.4486   30.9981 H           1 MOL       0.0629
     40 H12        56.0298   45.8234   34.7161 H           1 MOL       0.0634
     41 H13        47.8849   49.2785   33.5810 H           1 MOL       0.0544
     42 H14        49.3461   48.4013   34.0273 H           1 MOL       0.0544
     43 H15        47.1621   47.2946   34.7414 H           1 MOL       0.0580
     44 H16        48.2943   46.2718   33.8499 H           1 MOL       0.0580
     45 H17        45.9080   48.5720   32.0742 H           1 MOL       0.0580
     46 H18        45.7029   47.1843   31.0009 H           1 MOL       0.0580
     47 H19        48.0403   47.0903   30.4791 H           1 MOL       0.0544
     48 H20        47.5710   48.7929   30.3142 H           1 MOL       0.0544
@<TRIPOS>BOND
     1     1     2   2
     2     1     5   1
     3     1    14   1
     4     2     3   1
     5     2    15   1
     6     3     4   2
     7     3    13   1
     8     4     6   1
     9     5     6   1
    10     5     9   1
    11     6     7   2
    12     7     8   1
    13     8     9   2
    14     8    10   1
    15    10    11   2
    16    10    12  am
    17    12    24   1
    18    12    28   1
    19    14    17  ar
    20    14    21  ar
    21    15    16   1
    22    17    18  ar
    23    18    19  ar
    24    19    20  ar
    25    19    23   1
    26    20    21  ar
    27    21    22   1
    28    24    25   1
    29    25    26   1
    30    26    27   1
    31    27    28   1
    32     9    29   1
    33    13    30   1
    34    13    31   1
    35    13    32   1
    36    15    33   1
    37    15    34   1
    38    16    35   1
    39    16    36   1
    40    16    37   1
    41    17    38   1
    42    18    39   1
    43    20    40   1
    44    24    41   1
    45    24    42   1
    46    25    43   1
    47    25    44   1
    48    27    45   1
    49    27    46   1
    50    28    47   1
    51    28    48   1
@<TRIPOS>SUBSTRUCTURE
     1  MOL      1

