@<TRIPOS>MOLECULE
3nox_ligand_009
    48    51
SMALL
GAST_HUCK
****
This file was generated by PARSER (from files_GN.cpp)

@<TRIPOS>ATOM
      1 C1         47.2435   49.4151   34.3840 C.2         1 MOL       0.1404
      2 C2         46.5685   50.5844   34.1299 C.2         1 MOL       0.0782
      3 C3         46.1784   50.8445   32.8016 C.2         1 MOL       0.0387
      4 N4         46.3846   49.9398   31.8523 N.2         1 MOL      -0.2660
      5 N5         47.4453   48.5232   33.3689 N.pl3       1 MOL      -0.1859
      6 C6         47.0028   48.7763   32.1245 C.2         1 MOL       0.1941
      7 N7         47.2950   47.7828   31.2777 N.2         1 MOL      -0.3175
      8 C8         47.9705   46.8600   31.9818 C.2         1 MOL       0.0787
      9 C9         48.0488   47.3184   33.3007 C.2         1 MOL       0.0743
     10 C10        48.4756   45.6989   31.4203 C.2         1 MOL       0.1958
     11 O11        47.6571   45.1015   30.7325 O.2         1 MOL      -0.3941
     12 N12        49.7526   45.2558   31.4800 N.am        1 MOL      -0.2710
     13 C13        45.5418   52.0699   32.3306 C.3         1 MOL      -0.0096
     14 C14        47.6687   49.0417   35.6697 C.ar        1 MOL       0.0400
     15 C15        46.2223   51.5259   35.2158 C.3         1 MOL       0.0036
     16 N16        45.2219   50.9558   36.1310 N.4         1 MOL       0.2296
     17 C17        47.0241   47.9457   36.2924 C.ar        1 MOL      -0.0470
     18 C18        47.3255   47.5859   37.6167 C.ar        1 MOL      -0.0451
     19 C19        48.2642   48.3322   38.3499 C.ar        1 MOL       0.0429
     20 C20        48.9644   49.3835   37.7238 C.ar        1 MOL      -0.0313
     21 C21        48.6929   49.7225   36.3799 C.ar        1 MOL       0.0551
     22 CL22       49.6556   50.9110   35.6362 Cl          1 MOL      -0.0670
     23 CL23       48.5453   47.9580   39.9765 Cl          1 MOL      -0.0685
     24 C24        50.8218   45.9656   32.1654 C.3         1 MOL       0.0564
     25 C25        52.0646   46.1453   31.2450 C.3         1 MOL       0.0680
     26 O26        52.2474   45.1077   30.2563 O.3         1 MOL      -0.3758
     27 C27        51.6656   43.8389   30.5999 C.3         1 MOL       0.0680
     28 C28        50.1341   44.0302   30.7771 C.3         1 MOL       0.0564
     29 H1         48.4844   46.8150   34.0747 H           1 MOL       0.0902
     30 H2         45.3430   52.0475   31.2560 H           1 MOL       0.0451
     31 H3         46.1888   52.9278   32.5246 H           1 MOL       0.0451
     32 H4         44.5854   52.2186   32.8354 H           1 MOL       0.0451
     33 H5         45.7975   52.4669   34.8628 H           1 MOL       0.0958
     34 H6         47.1196   51.8019   35.7702 H           1 MOL       0.0958
     35 H7         45.0504   51.6080   36.8963 H           1 MOL       0.2006
     36 H8         45.5187   50.0554   36.5128 H           1 MOL       0.2006
     37 H9         44.3445   50.8477   35.6206 H           1 MOL       0.2006
     38 H10        46.3150   47.4098   35.7895 H           1 MOL       0.0642
     39 H11        46.8478   46.7905   38.0452 H           1 MOL       0.0629
     40 H12        49.6846   49.8900   38.2475 H           1 MOL       0.0634
     41 H13        51.1129   45.3659   33.0337 H           1 MOL       0.0544
     42 H14        50.5498   46.9518   32.5408 H           1 MOL       0.0544
     43 H15        52.9669   46.2041   31.8591 H           1 MOL       0.0580
     44 H16        51.9708   47.0889   30.7018 H           1 MOL       0.0580
     45 H17        52.1189   43.4450   31.5142 H           1 MOL       0.0580
     46 H18        51.8640   43.1318   29.7914 H           1 MOL       0.0580
     47 H19        49.7182   44.0477   29.7638 H           1 MOL       0.0544
     48 H20        49.7212   43.1612   31.2968 H           1 MOL       0.0544
@<TRIPOS>BOND
     1     1     2   2
     2     1     5   1
     3     1    14   1
     4     2     3   1
     5     2    15   1
     6     3     4   2
     7     3    13   1
     8     4     6   1
     9     5     6   1
    10     5     9   1
    11     6     7   2
    12     7     8   1
    13     8     9   2
    14     8    10   1
    15    10    11   2
    16    10    12  am
    17    12    24   1
    18    12    28   1
    19    14    17  ar
    20    14    21  ar
    21    15    16   1
    22    17    18  ar
    23    18    19  ar
    24    19    20  ar
    25    19    23   1
    26    20    21  ar
    27    21    22   1
    28    24    25   1
    29    25    26   1
    30    26    27   1
    31    27    28   1
    32     9    29   1
    33    13    30   1
    34    13    31   1
    35    13    32   1
    36    15    33   1
    37    15    34   1
    38    16    35   1
    39    16    36   1
    40    16    37   1
    41    17    38   1
    42    18    39   1
    43    20    40   1
    44    24    41   1
    45    24    42   1
    46    25    43   1
    47    25    44   1
    48    27    45   1
    49    27    46   1
    50    28    47   1
    51    28    48   1
@<TRIPOS>SUBSTRUCTURE
     1  MOL      1

