@<TRIPOS>MOLECULE
3nox_ligand_026
    48    51
SMALL
GAST_HUCK
****
This file was generated by PARSER (from files_GN.cpp)

@<TRIPOS>ATOM
      1 C1         47.8160   50.8935   32.2368 C.2         1 MOL       0.1404
      2 C2         46.8799   51.8946   32.2538 C.2         1 MOL       0.0782
      3 C3         47.2308   53.1279   31.6778 C.2         1 MOL       0.0387
      4 N4         48.4086   53.2835   31.0777 N.2         1 MOL      -0.2660
      5 N5         49.0325   51.1160   31.6643 N.pl3       1 MOL      -0.1859
      6 C6         49.3141   52.2849   31.0526 C.2         1 MOL       0.1941
      7 N7         50.5261   52.2724   30.4796 N.2         1 MOL      -0.3175
      8 C8         51.0625   51.0709   30.7647 C.2         1 MOL       0.0787
      9 C9         50.1365   50.3528   31.5203 C.2         1 MOL       0.0743
     10 C10        52.3123   50.6323   30.3751 C.2         1 MOL       0.1958
     11 O11        52.4322   50.4913   29.1593 O.2         1 MOL      -0.3941
     12 N12        53.3330   50.3638   31.2083 N.am        1 MOL      -0.2710
     13 C13        46.3817   54.3123   31.6815 C.3         1 MOL      -0.0096
     14 C14        47.5390   49.5805   32.6266 C.ar        1 MOL       0.0400
     15 C15        45.5538   51.6827   32.8742 C.3         1 MOL       0.0036
     16 N16        45.6417   51.7312   34.3387 N.4         1 MOL       0.2296
     17 C17        46.8927   48.7273   31.7010 C.ar        1 MOL      -0.0470
     18 C18        46.6410   47.3825   32.0108 C.ar        1 MOL      -0.0451
     19 C19        47.0499   46.8570   33.2506 C.ar        1 MOL       0.0429
     20 C20        47.7132   47.6893   34.1719 C.ar        1 MOL      -0.0313
     21 C21        47.9634   49.0444   33.8732 C.ar        1 MOL       0.0551
     22 CL22       48.7719   49.9810   35.0356 Cl          1 MOL      -0.0670
     23 CL23       46.7560   45.2347   33.6271 Cl          1 MOL      -0.0685
     24 C24        53.3605   50.8063   32.5988 C.3         1 MOL       0.0564
     25 C25        54.5834   51.7384   32.8017 C.3         1 MOL       0.0680
     26 O26        55.8033   51.0960   32.3730 O.3         1 MOL      -0.3758
     27 C27        55.7694   50.6498   31.0018 C.3         1 MOL       0.0680
     28 C28        54.5604   49.7130   30.7605 C.3         1 MOL       0.0564
     29 H1         50.2654   49.4020   31.8783 H           1 MOL       0.0902
     30 H2         46.8688   55.1829   31.2337 H           1 MOL       0.0451
     31 H3         46.1199   54.5747   32.7087 H           1 MOL       0.0451
     32 H4         45.4728   54.1176   31.1103 H           1 MOL       0.0451
     33 H5         45.1294   50.7201   32.5784 H           1 MOL       0.0958
     34 H6         44.8143   52.4239   32.5778 H           1 MOL       0.0958
     35 H7         44.6954   51.6711   34.7301 H           1 MOL       0.2006
     36 H8         46.0780   52.6123   34.6329 H           1 MOL       0.2006
     37 H9         46.1979   50.9422   34.6775 H           1 MOL       0.2006
     38 H10        46.6002   49.0805   30.7823 H           1 MOL       0.0642
     39 H11        46.1806   46.7813   31.3227 H           1 MOL       0.0629
     40 H12        48.0405   47.2952   35.0570 H           1 MOL       0.0634
     41 H13        53.4459   49.9331   33.2541 H           1 MOL       0.0544
     42 H14        52.4686   51.3586   32.9076 H           1 MOL       0.0544
     43 H15        54.6756   51.9865   33.8612 H           1 MOL       0.0580
     44 H16        54.4359   52.6725   32.2465 H           1 MOL       0.0580
     45 H17        56.6966   50.1093   30.7995 H           1 MOL       0.0580
     46 H18        55.7261   51.5080   30.3247 H           1 MOL       0.0580
     47 H19        54.5508   49.4196   29.7053 H           1 MOL       0.0544
     48 H20        54.7054   48.7955   31.3404 H           1 MOL       0.0544
@<TRIPOS>BOND
     1     1     2   2
     2     1     5   1
     3     1    14   1
     4     2     3   1
     5     2    15   1
     6     3     4   2
     7     3    13   1
     8     4     6   1
     9     5     6   1
    10     5     9   1
    11     6     7   2
    12     7     8   1
    13     8     9   2
    14     8    10   1
    15    10    11   2
    16    10    12  am
    17    12    24   1
    18    12    28   1
    19    14    17  ar
    20    14    21  ar
    21    15    16   1
    22    17    18  ar
    23    18    19  ar
    24    19    20  ar
    25    19    23   1
    26    20    21  ar
    27    21    22   1
    28    24    25   1
    29    25    26   1
    30    26    27   1
    31    27    28   1
    32     9    29   1
    33    13    30   1
    34    13    31   1
    35    13    32   1
    36    15    33   1
    37    15    34   1
    38    16    35   1
    39    16    36   1
    40    16    37   1
    41    17    38   1
    42    18    39   1
    43    20    40   1
    44    24    41   1
    45    24    42   1
    46    25    43   1
    47    25    44   1
    48    27    45   1
    49    27    46   1
    50    28    47   1
    51    28    48   1
@<TRIPOS>SUBSTRUCTURE
     1  MOL      1

