@<TRIPOS>MOLECULE
3nox_ligand_027
    48    51
SMALL
GAST_HUCK
****
This file was generated by PARSER (from files_GN.cpp)

@<TRIPOS>ATOM
      1 C1         47.6092   51.9116   30.9382 C.2         1 MOL       0.1404
      2 C2         47.2701   52.7393   29.8970 C.2         1 MOL       0.0782
      3 C3         48.3070   53.4277   29.2396 C.2         1 MOL       0.0387
      4 N4         49.5672   53.2678   29.6163 N.2         1 MOL      -0.2660
      5 N5         48.9217   51.7737   31.2894 N.pl3       1 MOL      -0.1859
      6 C6         49.8853   52.4469   30.6332 C.2         1 MOL       0.1941
      7 N7         51.1045   52.1776   31.1120 N.2         1 MOL      -0.3175
      8 C8         50.9326   51.2961   32.1075 C.2         1 MOL       0.0787
      9 C9         49.5649   51.0548   32.2357 C.2         1 MOL       0.0743
     10 C10        51.9779   50.8050   32.8629 C.2         1 MOL       0.1958
     11 O11        52.6328   51.6926   33.3967 O.2         1 MOL      -0.3941
     12 N12        52.3635   49.5153   32.9356 N.am        1 MOL      -0.2710
     13 C13        48.1378   54.3070   28.0919 C.3         1 MOL      -0.0096
     14 C14        46.6750   51.1302   31.6282 C.ar        1 MOL       0.0400
     15 C15        45.8722   52.9334   29.4619 C.3         1 MOL       0.0036
     16 N16        45.2790   54.1408   30.0600 N.4         1 MOL       0.2296
     17 C17        45.9056   51.7081   32.6675 C.ar        1 MOL      -0.0470
     18 C18        44.9592   50.9391   33.3709 C.ar        1 MOL      -0.0451
     19 C19        44.7702   49.5845   33.0414 C.ar        1 MOL       0.0429
     20 C20        45.5312   48.9979   32.0151 C.ar        1 MOL      -0.0313
     21 C21        46.4831   49.7585   31.3073 C.ar        1 MOL       0.0551
     22 CL22       47.3486   48.9745   30.0730 Cl          1 MOL      -0.0670
     23 CL23       43.6283   48.6564   33.8723 Cl          1 MOL      -0.0685
     24 C24        51.6841   48.4259   32.2508 C.3         1 MOL       0.0564
     25 C25        51.3884   47.2786   33.2504 C.3         1 MOL       0.0680
     26 O26        52.5949   46.8676   33.9228 O.3         1 MOL      -0.3758
     27 C27        53.2636   47.9412   34.6143 C.3         1 MOL       0.0680
     28 C28        53.5700   49.1165   33.6514 C.3         1 MOL       0.0564
     29 H1         49.1345   50.4498   32.9393 H           1 MOL       0.0902
     30 H2         49.0686   54.8014   27.7998 H           1 MOL       0.0451
     31 H3         47.4155   55.0831   28.3276 H           1 MOL       0.0451
     32 H4         47.7837   53.7385   27.2321 H           1 MOL       0.0451
     33 H5         45.2274   52.0918   29.7171 H           1 MOL       0.0958
     34 H6         45.8036   53.0216   28.3774 H           1 MOL       0.0958
     35 H7         44.3363   54.2568   29.6862 H           1 MOL       0.2006
     36 H8         45.8353   54.9696   29.8283 H           1 MOL       0.2006
     37 H9         45.2080   54.0437   31.0759 H           1 MOL       0.2006
     38 H10        46.0287   52.6926   32.9223 H           1 MOL       0.0642
     39 H11        44.4032   51.3662   34.1161 H           1 MOL       0.0629
     40 H12        45.3868   48.0137   31.7803 H           1 MOL       0.0634
     41 H13        52.3341   48.0458   31.4580 H           1 MOL       0.0544
     42 H14        50.7434   48.7038   31.7775 H           1 MOL       0.0544
     43 H15        50.9862   46.4198   32.7110 H           1 MOL       0.0580
     44 H16        50.6408   47.5987   33.9816 H           1 MOL       0.0580
     45 H17        54.1984   47.5520   35.0231 H           1 MOL       0.0580
     46 H18        52.6499   48.2895   35.4496 H           1 MOL       0.0580
     47 H19        54.0272   49.9183   34.2364 H           1 MOL       0.0544
     48 H20        54.3175   48.7871   32.9238 H           1 MOL       0.0544
@<TRIPOS>BOND
     1     1     2   2
     2     1     5   1
     3     1    14   1
     4     2     3   1
     5     2    15   1
     6     3     4   2
     7     3    13   1
     8     4     6   1
     9     5     6   1
    10     5     9   1
    11     6     7   2
    12     7     8   1
    13     8     9   2
    14     8    10   1
    15    10    11   2
    16    10    12  am
    17    12    24   1
    18    12    28   1
    19    14    17  ar
    20    14    21  ar
    21    15    16   1
    22    17    18  ar
    23    18    19  ar
    24    19    20  ar
    25    19    23   1
    26    20    21  ar
    27    21    22   1
    28    24    25   1
    29    25    26   1
    30    26    27   1
    31    27    28   1
    32     9    29   1
    33    13    30   1
    34    13    31   1
    35    13    32   1
    36    15    33   1
    37    15    34   1
    38    16    35   1
    39    16    36   1
    40    16    37   1
    41    17    38   1
    42    18    39   1
    43    20    40   1
    44    24    41   1
    45    24    42   1
    46    25    43   1
    47    25    44   1
    48    27    45   1
    49    27    46   1
    50    28    47   1
    51    28    48   1
@<TRIPOS>SUBSTRUCTURE
     1  MOL      1

