@<TRIPOS>MOLECULE
3nox_ligand_081
    48    51
SMALL
GAST_HUCK
****
This file was generated by PARSER (from files_GN.cpp)

@<TRIPOS>ATOM
      1 C1         48.8021   49.8603   35.6691 C.2         1 MOL       0.1404
      2 C2         48.4206   49.5282   34.3902 C.2         1 MOL       0.0782
      3 C3         47.5521   48.4170   34.2555 C.2         1 MOL       0.0387
      4 N4         47.1861   47.7060   35.3247 N.2         1 MOL      -0.2660
      5 N5         48.3966   49.1147   36.7238 N.pl3       1 MOL      -0.1859
      6 C6         47.6090   48.0345   36.5707 C.2         1 MOL       0.1941
      7 N7         47.4475   47.3993   37.7464 N.2         1 MOL      -0.3175
      8 C8         48.1495   48.0895   38.6710 C.2         1 MOL       0.0787
      9 C9         48.7282   49.1744   38.0208 C.2         1 MOL       0.0743
     10 C10        48.3710   47.7688   40.0053 C.2         1 MOL       0.1958
     11 O11        49.4443   48.1709   40.4525 O.2         1 MOL      -0.3941
     12 N12        47.5355   47.0998   40.8288 N.am        1 MOL      -0.2710
     13 C13        46.9920   47.9602   32.9876 C.3         1 MOL      -0.0096
     14 C14        49.7385   50.8531   35.9429 C.ar        1 MOL       0.0400
     15 C15        48.9018   50.3191   33.2210 C.3         1 MOL       0.0036
     16 N16        48.2080   51.6136   33.1869 N.4         1 MOL       0.2296
     17 C17        49.3103   52.0140   36.6272 C.ar        1 MOL      -0.0470
     18 C18        50.2281   53.0620   36.8325 C.ar        1 MOL      -0.0451
     19 C19        51.5500   52.9849   36.3195 C.ar        1 MOL       0.0429
     20 C20        52.0002   51.7770   35.7455 C.ar        1 MOL      -0.0313
     21 C21        51.1034   50.6919   35.5766 C.ar        1 MOL       0.0551
     22 CL22       51.6543   49.2348   34.8709 Cl          1 MOL      -0.0670
     23 CL23       52.5477   54.3603   36.3290 Cl          1 MOL      -0.0685
     24 C24        46.1085   47.0037   40.5962 C.3         1 MOL       0.0564
     25 C25        45.5455   45.5957   40.9297 C.3         1 MOL       0.0680
     26 O26        46.0000   45.1596   42.2299 O.3         1 MOL      -0.3758
     27 C27        47.4228   45.2503   42.4958 C.3         1 MOL       0.0680
     28 C28        47.9649   46.6618   42.1441 C.3         1 MOL       0.0564
     29 H1         49.3538   49.8614   38.4538 H           1 MOL       0.0902
     30 H2         46.3231   47.1057   33.0889 H           1 MOL       0.0451
     31 H3         47.7986   47.6639   32.3176 H           1 MOL       0.0451
     32 H4         46.4129   48.7665   32.5305 H           1 MOL       0.0451
     33 H5         48.7018   49.8359   32.2689 H           1 MOL       0.0958
     34 H6         49.9955   50.5213   33.2430 H           1 MOL       0.0958
     35 H7         48.4189   52.0603   32.2980 H           1 MOL       0.2006
     36 H8         48.5161   52.2127   33.9487 H           1 MOL       0.2006
     37 H9         47.1956   51.4634   33.2528 H           1 MOL       0.2006
     38 H10        48.3473   52.0976   36.9775 H           1 MOL       0.0642
     39 H11        49.9141   53.9110   37.3069 H           1 MOL       0.0629
     40 H12        52.9585   51.7090   35.3898 H           1 MOL       0.0634
     41 H13        45.8225   47.2461   39.5818 H           1 MOL       0.0544
     42 H14        45.6189   47.7457   41.2389 H           1 MOL       0.0544
     43 H15        45.8330   44.8833   40.1519 H           1 MOL       0.0580
     44 H16        44.4488   45.6206   40.9390 H           1 MOL       0.0580
     45 H17        47.9665   44.4743   41.9485 H           1 MOL       0.0580
     46 H18        47.5971   45.0736   43.5689 H           1 MOL       0.0580
     47 H19        47.6108   47.3823   42.8924 H           1 MOL       0.0544
     48 H20        49.0564   46.6056   42.2333 H           1 MOL       0.0544
@<TRIPOS>BOND
     1     1     2   2
     2     1     5   1
     3     1    14   1
     4     2     3   1
     5     2    15   1
     6     3     4   2
     7     3    13   1
     8     4     6   1
     9     5     6   1
    10     5     9   1
    11     6     7   2
    12     7     8   1
    13     8     9   2
    14     8    10   1
    15    10    11   2
    16    10    12  am
    17    12    24   1
    18    12    28   1
    19    14    17  ar
    20    14    21  ar
    21    15    16   1
    22    17    18  ar
    23    18    19  ar
    24    19    20  ar
    25    19    23   1
    26    20    21  ar
    27    21    22   1
    28    24    25   1
    29    25    26   1
    30    26    27   1
    31    27    28   1
    32     9    29   1
    33    13    30   1
    34    13    31   1
    35    13    32   1
    36    15    33   1
    37    15    34   1
    38    16    35   1
    39    16    36   1
    40    16    37   1
    41    17    38   1
    42    18    39   1
    43    20    40   1
    44    24    41   1
    45    24    42   1
    46    25    43   1
    47    25    44   1
    48    27    45   1
    49    27    46   1
    50    28    47   1
    51    28    48   1
@<TRIPOS>SUBSTRUCTURE
     1  MOL      1

