@<TRIPOS>MOLECULE
3nox_ligand_014
    48    51
SMALL
GAST_HUCK
****
This file was generated by PARSER (from files_GN.cpp)

@<TRIPOS>ATOM
      1 C1         47.7893   49.8408   33.2051 C.2         1 MOL       0.1404
      2 C2         46.9593   50.9304   33.1677 C.2         1 MOL       0.0782
      3 C3         47.4751   52.1296   32.6400 C.2         1 MOL       0.0387
      4 N4         48.7667   52.2377   32.3501 N.2         1 MOL      -0.2660
      5 N5         49.0904   49.9832   32.8223 N.pl3       1 MOL      -0.1859
      6 C6         49.5921   51.1779   32.4665 C.2         1 MOL       0.1941
      7 N7         50.9084   51.0949   32.2250 N.2         1 MOL      -0.3175
      8 C8         51.2847   49.8115   32.4207 C.2         1 MOL       0.0787
      9 C9         50.1162   49.1156   32.7373 C.2         1 MOL       0.0743
     10 C10        52.5901   49.3535   32.2075 C.2         1 MOL       0.1958
     11 O11        53.2930   50.1496   31.5966 O.2         1 MOL      -0.3941
     12 N12        53.1403   48.1685   32.5614 N.am        1 MOL      -0.2710
     13 C13        46.6577   53.2875   32.2967 C.3         1 MOL      -0.0096
     14 C14        47.4136   48.5997   33.7333 C.ar        1 MOL       0.0400
     15 C15        45.6129   50.9255   33.7768 C.3         1 MOL       0.0036
     16 N16        45.6458   51.5782   35.0953 N.4         1 MOL       0.2296
     17 C17        47.1407   47.5358   32.8397 C.ar        1 MOL      -0.0470
     18 C18        46.8012   46.2605   33.3242 C.ar        1 MOL      -0.0451
     19 C19        46.7031   46.0365   34.7090 C.ar        1 MOL       0.0429
     20 C20        46.9678   47.0843   35.6069 C.ar        1 MOL      -0.0313
     21 C21        47.3661   48.3500   35.1323 C.ar        1 MOL       0.0551
     22 CL22       47.8650   49.4740   36.3037 Cl          1 MOL      -0.0670
     23 CL23       46.3181   44.4972   35.2977 Cl          1 MOL      -0.0685
     24 C24        52.6095   47.2571   33.5612 C.3         1 MOL       0.0564
     25 C25        52.2383   45.9258   32.8566 C.3         1 MOL       0.0680
     26 O26        53.3964   45.3832   32.1840 O.3         1 MOL      -0.3758
     27 C27        54.0037   46.2933   31.2415 C.3         1 MOL       0.0680
     28 C28        54.3414   47.6544   31.9088 C.3         1 MOL       0.0564
     29 H1         50.0195   48.1082   32.8606 H           1 MOL       0.0902
     30 H2         47.2453   54.0930   31.8507 H           1 MOL       0.0451
     31 H3         46.1696   53.6865   33.1858 H           1 MOL       0.0451
     32 H4         45.8948   52.9983   31.5728 H           1 MOL       0.0451
     33 H5         45.2115   49.9203   33.9122 H           1 MOL       0.0958
     34 H6         44.8879   51.4427   33.1399 H           1 MOL       0.0958
     35 H7         44.6948   51.6484   35.4584 H           1 MOL       0.2006
     36 H8         46.0472   52.5181   35.0200 H           1 MOL       0.2006
     37 H9         46.2150   51.0152   35.7360 H           1 MOL       0.2006
     38 H10        47.2098   47.6701   31.8269 H           1 MOL       0.0642
     39 H11        46.6267   45.4970   32.6670 H           1 MOL       0.0629
     40 H12        46.9123   46.9132   36.6139 H           1 MOL       0.0634
     41 H13        51.7662   47.6431   34.1336 H           1 MOL       0.0544
     42 H14        53.3867   47.0513   34.3046 H           1 MOL       0.0544
     43 H15        51.4253   46.0815   32.1417 H           1 MOL       0.0580
     44 H16        51.9029   45.2007   33.5997 H           1 MOL       0.0580
     45 H17        53.3315   46.4526   30.3936 H           1 MOL       0.0580
     46 H18        54.9212   45.8365   30.8662 H           1 MOL       0.0580
     47 H19        55.1295   47.5082   32.6541 H           1 MOL       0.0544
     48 H20        54.7531   48.3113   31.1344 H           1 MOL       0.0544
@<TRIPOS>BOND
     1     1     2   2
     2     1     5   1
     3     1    14   1
     4     2     3   1
     5     2    15   1
     6     3     4   2
     7     3    13   1
     8     4     6   1
     9     5     6   1
    10     5     9   1
    11     6     7   2
    12     7     8   1
    13     8     9   2
    14     8    10   1
    15    10    11   2
    16    10    12  am
    17    12    24   1
    18    12    28   1
    19    14    17  ar
    20    14    21  ar
    21    15    16   1
    22    17    18  ar
    23    18    19  ar
    24    19    20  ar
    25    19    23   1
    26    20    21  ar
    27    21    22   1
    28    24    25   1
    29    25    26   1
    30    26    27   1
    31    27    28   1
    32     9    29   1
    33    13    30   1
    34    13    31   1
    35    13    32   1
    36    15    33   1
    37    15    34   1
    38    16    35   1
    39    16    36   1
    40    16    37   1
    41    17    38   1
    42    18    39   1
    43    20    40   1
    44    24    41   1
    45    24    42   1
    46    25    43   1
    47    25    44   1
    48    27    45   1
    49    27    46   1
    50    28    47   1
    51    28    48   1
@<TRIPOS>SUBSTRUCTURE
     1  MOL      1

