@<TRIPOS>MOLECULE
3nox_ligand_013
    48    51
SMALL
GAST_HUCK
****
This file was generated by PARSER (from files_GN.cpp)

@<TRIPOS>ATOM
      1 C1         47.8348   49.9513   33.9487 C.2         1 MOL       0.1404
      2 C2         47.7517   50.7326   35.0761 C.2         1 MOL       0.0782
      3 C3         48.8444   50.7291   35.9646 C.2         1 MOL       0.0387
      4 N4         49.9004   49.9606   35.7240 N.2         1 MOL      -0.2660
      5 N5         48.9485   49.1872   33.7427 N.pl3       1 MOL      -0.1859
      6 C6         49.9623   49.1813   34.6261 C.2         1 MOL       0.1941
      7 N7         50.9441   48.3504   34.2468 N.2         1 MOL      -0.3175
      8 C8         50.5607   47.7879   33.0851 C.2         1 MOL       0.0787
      9 C9         49.3292   48.3552   32.7494 C.2         1 MOL       0.0743
     10 C10        51.3241   46.8858   32.3490 C.2         1 MOL       0.1958
     11 O11        52.5331   47.0383   32.4831 O.2         1 MOL      -0.3941
     12 N12        50.8635   45.9124   31.5347 N.am        1 MOL      -0.2710
     13 C13        48.9243   51.5006   37.2032 C.3         1 MOL      -0.0096
     14 C14        46.8317   49.8868   32.9698 C.ar        1 MOL       0.0400
     15 C15        46.5345   51.5125   35.3796 C.3         1 MOL       0.0036
     16 N16        45.4322   50.6480   35.8192 N.4         1 MOL       0.2296
     17 C17        46.5716   51.0299   32.1760 C.ar        1 MOL      -0.0470
     18 C18        45.6149   50.9951   31.1472 C.ar        1 MOL      -0.0451
     19 C19        44.9307   49.8001   30.8631 C.ar        1 MOL       0.0429
     20 C20        45.2077   48.6435   31.6155 C.ar        1 MOL      -0.0313
     21 C21        46.1391   48.6807   32.6742 C.ar        1 MOL       0.0551
     22 CL22       46.3698   47.2567   33.5733 Cl          1 MOL      -0.0670
     23 CL23       43.7788   49.7565   29.6220 Cl          1 MOL      -0.0685
     24 C24        49.5098   45.3823   31.5995 C.3         1 MOL       0.0564
     25 C25        49.5420   43.8414   31.7854 C.3         1 MOL       0.0680
     26 O26        50.3925   43.1964   30.8153 O.3         1 MOL      -0.3758
     27 C27        51.7330   43.7208   30.7950 C.3         1 MOL       0.0680
     28 C28        51.7161   45.2512   30.5543 C.3         1 MOL       0.0564
     29 H1         48.8134   48.1745   31.8839 H           1 MOL       0.0902
     30 H2         49.8512   51.3148   37.7548 H           1 MOL       0.0451
     31 H3         48.0948   51.2337   37.8610 H           1 MOL       0.0451
     32 H4         48.8808   52.5709   36.9870 H           1 MOL       0.0451
     33 H5         46.2204   52.0807   34.5055 H           1 MOL       0.0958
     34 H6         46.6719   52.2508   36.1684 H           1 MOL       0.0958
     35 H7         44.6033   51.2220   35.9909 H           1 MOL       0.2006
     36 H8         45.6954   50.1722   36.6848 H           1 MOL       0.2006
     37 H9         45.2164   49.9531   35.1030 H           1 MOL       0.2006
     38 H10        47.0804   51.9030   32.3411 H           1 MOL       0.0642
     39 H11        45.4293   51.8403   30.6007 H           1 MOL       0.0629
     40 H12        44.7268   47.7709   31.3852 H           1 MOL       0.0634
     41 H13        48.9886   45.6197   30.6682 H           1 MOL       0.0544
     42 H14        48.9175   45.7856   32.4227 H           1 MOL       0.0544
     43 H15        48.5336   43.4417   31.6664 H           1 MOL       0.0580
     44 H16        49.8849   43.5917   32.7931 H           1 MOL       0.0580
     45 H17        52.2765   43.2301   29.9850 H           1 MOL       0.0580
     46 H18        52.2429   43.4896   31.7346 H           1 MOL       0.0580
     47 H19        52.7476   45.6113   30.5419 H           1 MOL       0.0544
     48 H20        51.3077   45.4375   29.5570 H           1 MOL       0.0544
@<TRIPOS>BOND
     1     1     2   2
     2     1     5   1
     3     1    14   1
     4     2     3   1
     5     2    15   1
     6     3     4   2
     7     3    13   1
     8     4     6   1
     9     5     6   1
    10     5     9   1
    11     6     7   2
    12     7     8   1
    13     8     9   2
    14     8    10   1
    15    10    11   2
    16    10    12  am
    17    12    24   1
    18    12    28   1
    19    14    17  ar
    20    14    21  ar
    21    15    16   1
    22    17    18  ar
    23    18    19  ar
    24    19    20  ar
    25    19    23   1
    26    20    21  ar
    27    21    22   1
    28    24    25   1
    29    25    26   1
    30    26    27   1
    31    27    28   1
    32     9    29   1
    33    13    30   1
    34    13    31   1
    35    13    32   1
    36    15    33   1
    37    15    34   1
    38    16    35   1
    39    16    36   1
    40    16    37   1
    41    17    38   1
    42    18    39   1
    43    20    40   1
    44    24    41   1
    45    24    42   1
    46    25    43   1
    47    25    44   1
    48    27    45   1
    49    27    46   1
    50    28    47   1
    51    28    48   1
@<TRIPOS>SUBSTRUCTURE
     1  MOL      1

