@<TRIPOS>MOLECULE
3nox_ligand_055
    48    51
SMALL
GAST_HUCK
****
This file was generated by PARSER (from files_GN.cpp)

@<TRIPOS>ATOM
      1 C1         47.6026   51.7632   30.7240 C.2         1 MOL       0.1404
      2 C2         47.3107   52.6730   29.7377 C.2         1 MOL       0.0782
      3 C3         48.3865   53.3093   29.0942 C.2         1 MOL       0.0387
      4 N4         49.6403   53.0471   29.4555 N.2         1 MOL      -0.2660
      5 N5         48.9024   51.5378   31.0673 N.pl3       1 MOL      -0.1859
      6 C6         49.9108   52.1685   30.4394 C.2         1 MOL       0.1941
      7 N7         51.1075   51.7895   30.9129 N.2         1 MOL      -0.3175
      8 C8         50.8706   50.9038   31.9000 C.2         1 MOL       0.0787
      9 C9         49.4846   50.7406   31.9874 C.2         1 MOL       0.0743
     10 C10        51.8509   50.2198   32.6058 C.2         1 MOL       0.1958
     11 O11        52.8190   49.8922   31.9266 O.2         1 MOL      -0.3941
     12 N12        51.7913   49.8733   33.9082 N.am        1 MOL      -0.2710
     13 C13        48.2538   54.2441   27.9808 C.3         1 MOL      -0.0096
     14 C14        46.6254   51.0576   31.4285 C.ar        1 MOL       0.0400
     15 C15        45.9212   53.0207   29.3781 C.3         1 MOL       0.0036
     16 N16        45.5061   54.2826   30.0104 N.4         1 MOL       0.2296
     17 C17        46.3844   49.7071   31.0760 C.ar        1 MOL      -0.0470
     18 C18        45.4526   48.9366   31.7909 C.ar        1 MOL      -0.0451
     19 C19        44.7448   49.5050   32.8667 C.ar        1 MOL       0.0429
     20 C20        44.9505   50.8568   33.2055 C.ar        1 MOL      -0.0313
     21 C21        45.8947   51.6303   32.5019 C.ar        1 MOL       0.0551
     22 CL22       46.1227   53.2436   32.9842 Cl          1 MOL      -0.0670
     23 CL23       43.6745   48.5520   33.7596 Cl          1 MOL      -0.0685
     24 C24        50.9135   50.5238   34.8694 C.3         1 MOL       0.0564
     25 C25        51.7560   51.1220   36.0280 C.3         1 MOL       0.0680
     26 O26        52.6301   50.1247   36.5976 O.3         1 MOL      -0.3758
     27 C27        53.5071   49.5046   35.6360 C.3         1 MOL       0.0680
     28 C28        52.6781   48.8766   34.4882 C.3         1 MOL       0.0564
     29 H1         48.9978   50.1023   32.6173 H           1 MOL       0.0902
     30 H2         49.2176   54.6193   27.6215 H           1 MOL       0.0451
     31 H3         47.6672   55.1078   28.2864 H           1 MOL       0.0451
     32 H4         47.7574   53.7591   27.1383 H           1 MOL       0.0451
     33 H5         45.2006   52.2584   29.6800 H           1 MOL       0.0958
     34 H6         45.8090   53.1051   28.2958 H           1 MOL       0.0958
     35 H7         44.5345   54.4745   29.7540 H           1 MOL       0.2006
     36 H8         46.0984   55.0576   29.6945 H           1 MOL       0.2006
     37 H9         45.5715   54.1995   31.0291 H           1 MOL       0.2006
     38 H10        46.8970   49.2738   30.3013 H           1 MOL       0.0642
     39 H11        45.2968   47.9575   31.5365 H           1 MOL       0.0629
     40 H12        44.4066   51.2721   33.9698 H           1 MOL       0.0634
     41 H13        50.2077   49.7925   35.2749 H           1 MOL       0.0544
     42 H14        50.3316   51.3382   34.4392 H           1 MOL       0.0544
     43 H15        51.0939   51.4827   36.8171 H           1 MOL       0.0580
     44 H16        52.3434   51.9742   35.6707 H           1 MOL       0.0580
     45 H17        54.0823   48.7261   36.1444 H           1 MOL       0.0580
     46 H18        54.2115   50.2380   35.2341 H           1 MOL       0.0580
     47 H19        53.3657   48.4244   33.7690 H           1 MOL       0.0544
     48 H20        52.0665   48.0666   34.9007 H           1 MOL       0.0544
@<TRIPOS>BOND
     1     1     2   2
     2     1     5   1
     3     1    14   1
     4     2     3   1
     5     2    15   1
     6     3     4   2
     7     3    13   1
     8     4     6   1
     9     5     6   1
    10     5     9   1
    11     6     7   2
    12     7     8   1
    13     8     9   2
    14     8    10   1
    15    10    11   2
    16    10    12  am
    17    12    24   1
    18    12    28   1
    19    14    17  ar
    20    14    21  ar
    21    15    16   1
    22    17    18  ar
    23    18    19  ar
    24    19    20  ar
    25    19    23   1
    26    20    21  ar
    27    21    22   1
    28    24    25   1
    29    25    26   1
    30    26    27   1
    31    27    28   1
    32     9    29   1
    33    13    30   1
    34    13    31   1
    35    13    32   1
    36    15    33   1
    37    15    34   1
    38    16    35   1
    39    16    36   1
    40    16    37   1
    41    17    38   1
    42    18    39   1
    43    20    40   1
    44    24    41   1
    45    24    42   1
    46    25    43   1
    47    25    44   1
    48    27    45   1
    49    27    46   1
    50    28    47   1
    51    28    48   1
@<TRIPOS>SUBSTRUCTURE
     1  MOL      1

