@<TRIPOS>MOLECULE
3nox_ligand_016
    48    51
SMALL
GAST_HUCK
****
This file was generated by PARSER (from files_GN.cpp)

@<TRIPOS>ATOM
      1 C1         47.9808   50.8505   33.9683 C.2         1 MOL       0.1404
      2 C2         48.0405   50.9553   35.3351 C.2         1 MOL       0.0782
      3 C3         49.2990   51.2047   35.9147 C.2         1 MOL       0.0387
      4 N4         50.3845   51.3004   35.1548 N.2         1 MOL      -0.2660
      5 N5         49.1125   51.0071   33.2281 N.pl3       1 MOL      -0.1859
      6 C6         50.3094   51.1975   33.8124 C.2         1 MOL       0.1941
      7 N7         51.2930   51.2868   32.9039 N.2         1 MOL      -0.3175
      8 C8         50.7086   51.1878   31.6976 C.2         1 MOL       0.0787
      9 C9         49.3455   50.9933   31.9001 C.2         1 MOL       0.0743
     10 C10        51.3594   51.2243   30.4813 C.2         1 MOL       0.1958
     11 O11        52.2788   50.4196   30.3901 O.2         1 MOL      -0.3941
     12 N12        51.0534   52.0328   29.4472 N.am        1 MOL      -0.2710
     13 C13        49.5344   51.4054   37.3385 C.3         1 MOL      -0.0096
     14 C14        46.8035   50.5538   33.2721 C.ar        1 MOL       0.0400
     15 C15        46.8255   50.7937   36.1651 C.3         1 MOL       0.0036
     16 N16        45.7723   51.7586   35.8208 N.4         1 MOL       0.2296
     17 C17        46.2555   49.2540   33.3794 C.ar        1 MOL      -0.0470
     18 C18        45.0622   48.9211   32.7206 C.ar        1 MOL      -0.0451
     19 C19        44.4040   49.8820   31.9334 C.ar        1 MOL       0.0429
     20 C20        44.9473   51.1741   31.8011 C.ar        1 MOL      -0.0313
     21 C21        46.1466   51.5171   32.4585 C.ar        1 MOL       0.0551
     22 CL22       46.7362   53.1013   32.2606 Cl          1 MOL      -0.0670
     23 CL23       42.9573   49.4879   31.1534 Cl          1 MOL      -0.0685
     24 C24        50.2387   53.2307   29.5859 C.3         1 MOL       0.0564
     25 C25        49.2208   53.3659   28.4180 C.3         1 MOL       0.0680
     26 O26        49.6443   52.7659   27.1735 O.3         1 MOL      -0.3758
     27 C27        51.0687   52.6710   27.0010 C.3         1 MOL       0.0680
     28 C28        51.6535   51.7921   28.1396 C.3         1 MOL       0.0564
     29 H1         48.6471   50.8589   31.1648 H           1 MOL       0.0902
     30 H2         50.5802   51.6314   37.5589 H           1 MOL       0.0451
     31 H3         49.2685   50.5044   37.8937 H           1 MOL       0.0451
     32 H4         48.9360   52.2450   37.6984 H           1 MOL       0.0451
     33 H5         47.0008   50.9106   37.2320 H           1 MOL       0.0958
     34 H6         46.4239   49.7891   36.0408 H           1 MOL       0.0958
     35 H7         45.0252   51.7207   36.5137 H           1 MOL       0.2006
     36 H8         45.3780   51.5348   34.9073 H           1 MOL       0.2006
     37 H9         46.1571   52.7048   35.7943 H           1 MOL       0.2006
     38 H10        46.7163   48.5399   33.9512 H           1 MOL       0.0642
     39 H11        44.6783   47.9793   32.8233 H           1 MOL       0.0629
     40 H12        44.4631   51.8703   31.2284 H           1 MOL       0.0634
     41 H13        50.9213   54.0860   29.5441 H           1 MOL       0.0544
     42 H14        49.7044   53.3184   30.5335 H           1 MOL       0.0544
     43 H15        49.0113   54.4241   28.2417 H           1 MOL       0.0580
     44 H16        48.2843   52.8844   28.7029 H           1 MOL       0.0580
     45 H17        51.5190   53.6671   27.0133 H           1 MOL       0.0580
     46 H18        51.2795   52.2164   26.0307 H           1 MOL       0.0580
     47 H19        51.4698   50.7492   27.8605 H           1 MOL       0.0544
     48 H20        52.7356   51.9449   28.1853 H           1 MOL       0.0544
@<TRIPOS>BOND
     1     1     2   2
     2     1     5   1
     3     1    14   1
     4     2     3   1
     5     2    15   1
     6     3     4   2
     7     3    13   1
     8     4     6   1
     9     5     6   1
    10     5     9   1
    11     6     7   2
    12     7     8   1
    13     8     9   2
    14     8    10   1
    15    10    11   2
    16    10    12  am
    17    12    24   1
    18    12    28   1
    19    14    17  ar
    20    14    21  ar
    21    15    16   1
    22    17    18  ar
    23    18    19  ar
    24    19    20  ar
    25    19    23   1
    26    20    21  ar
    27    21    22   1
    28    24    25   1
    29    25    26   1
    30    26    27   1
    31    27    28   1
    32     9    29   1
    33    13    30   1
    34    13    31   1
    35    13    32   1
    36    15    33   1
    37    15    34   1
    38    16    35   1
    39    16    36   1
    40    16    37   1
    41    17    38   1
    42    18    39   1
    43    20    40   1
    44    24    41   1
    45    24    42   1
    46    25    43   1
    47    25    44   1
    48    27    45   1
    49    27    46   1
    50    28    47   1
    51    28    48   1
@<TRIPOS>SUBSTRUCTURE
     1  MOL      1

