@<TRIPOS>MOLECULE
3nox_ligand_049
    48    51
SMALL
GAST_HUCK
****
This file was generated by PARSER (from files_GN.cpp)

@<TRIPOS>ATOM
      1 C1         48.0638   49.2241   32.5918 C.2         1 MOL       0.1404
      2 C2         47.5120   49.6365   31.4049 C.2         1 MOL       0.0782
      3 C3         48.0109   50.8201   30.8269 C.2         1 MOL       0.0387
      4 N4         48.9992   51.4861   31.4112 N.2         1 MOL      -0.2660
      5 N5         49.0480   49.9599   33.1748 N.pl3       1 MOL      -0.1859
      6 C6         49.5337   51.0611   32.5704 C.2         1 MOL       0.1941
      7 N7         50.5447   51.5960   33.2674 N.2         1 MOL      -0.3175
      8 C8         50.7427   50.8059   34.3388 C.2         1 MOL       0.0787
      9 C9         49.7689   49.8124   34.3039 C.2         1 MOL       0.0743
     10 C10        51.7598   51.0187   35.2636 C.2         1 MOL       0.1958
     11 O11        51.8520   52.1874   35.6016 O.2         1 MOL      -0.3941
     12 N12        52.6761   50.1108   35.6802 N.am        1 MOL      -0.2710
     13 C13        47.5077   51.4306   29.6035 C.3         1 MOL      -0.0096
     14 C14        47.7455   48.0084   33.2072 C.ar        1 MOL       0.0400
     15 C15        46.4214   48.8635   30.7676 C.3         1 MOL       0.0036
     16 N16        45.1698   48.9516   31.5323 N.4         1 MOL       0.2296
     17 C17        48.3220   46.8207   32.6935 C.ar        1 MOL      -0.0470
     18 C18        48.0525   45.5797   33.2858 C.ar        1 MOL      -0.0451
     19 C19        47.2184   45.5102   34.4194 C.ar        1 MOL       0.0429
     20 C20        46.6767   46.6854   34.9655 C.ar        1 MOL      -0.0313
     21 C21        46.9360   47.9384   34.3700 C.ar        1 MOL       0.0551
     22 CL22       46.2459   49.3172   35.0798 Cl          1 MOL      -0.0670
     23 CL23       46.8693   44.0142   35.1293 Cl          1 MOL      -0.0685
     24 C24        52.6879   48.7092   35.2867 C.3         1 MOL       0.0564
     25 C25        54.0423   48.3266   34.6405 C.3         1 MOL       0.0680
     26 O26        55.1406   48.7076   35.4913 O.3         1 MOL      -0.3758
     27 C27        55.1408   50.1076   35.8266 C.3         1 MOL       0.0680
     28 C28        53.8089   50.5046   36.5129 C.3         1 MOL       0.0564
     29 H1         49.6418   49.0806   35.0033 H           1 MOL       0.0902
     30 H2         48.0361   52.3521   29.3520 H           1 MOL       0.0451
     31 H3         46.4547   51.6805   29.7269 H           1 MOL       0.0451
     32 H4         47.6229   50.7464   28.7612 H           1 MOL       0.0451
     33 H5         46.7011   47.8160   30.6710 H           1 MOL       0.0958
     34 H6         46.1864   49.1900   29.7588 H           1 MOL       0.0958
     35 H7         44.4505   48.3922   31.0675 H           1 MOL       0.2006
     36 H8         44.8670   49.9263   31.5817 H           1 MOL       0.2006
     37 H9         45.3127   48.5910   32.4793 H           1 MOL       0.2006
     38 H10        48.9413   46.8489   31.8788 H           1 MOL       0.0642
     39 H11        48.4607   44.7283   32.8984 H           1 MOL       0.0629
     40 H12        46.0914   46.6253   35.8011 H           1 MOL       0.0634
     41 H13        51.9150   48.4219   34.5813 H           1 MOL       0.0544
     42 H14        52.5365   48.1059   36.1816 H           1 MOL       0.0544
     43 H15        54.1360   48.8123   33.6668 H           1 MOL       0.0580
     44 H16        54.0795   47.2455   34.4897 H           1 MOL       0.0580
     45 H17        55.2912   50.7088   34.9262 H           1 MOL       0.0580
     46 H18        55.9724   50.2977   36.5040 H           1 MOL       0.0580
     47 H19        53.7380   49.9916   37.4689 H           1 MOL       0.0544
     48 H20        53.8574   51.5722   36.7348 H           1 MOL       0.0544
@<TRIPOS>BOND
     1     1     2   2
     2     1     5   1
     3     1    14   1
     4     2     3   1
     5     2    15   1
     6     3     4   2
     7     3    13   1
     8     4     6   1
     9     5     6   1
    10     5     9   1
    11     6     7   2
    12     7     8   1
    13     8     9   2
    14     8    10   1
    15    10    11   2
    16    10    12  am
    17    12    24   1
    18    12    28   1
    19    14    17  ar
    20    14    21  ar
    21    15    16   1
    22    17    18  ar
    23    18    19  ar
    24    19    20  ar
    25    19    23   1
    26    20    21  ar
    27    21    22   1
    28    24    25   1
    29    25    26   1
    30    26    27   1
    31    27    28   1
    32     9    29   1
    33    13    30   1
    34    13    31   1
    35    13    32   1
    36    15    33   1
    37    15    34   1
    38    16    35   1
    39    16    36   1
    40    16    37   1
    41    17    38   1
    42    18    39   1
    43    20    40   1
    44    24    41   1
    45    24    42   1
    46    25    43   1
    47    25    44   1
    48    27    45   1
    49    27    46   1
    50    28    47   1
    51    28    48   1
@<TRIPOS>SUBSTRUCTURE
     1  MOL      1

