@<TRIPOS>MOLECULE
3nox_ligand_048
    48    51
SMALL
GAST_HUCK
****
This file was generated by PARSER (from files_GN.cpp)

@<TRIPOS>ATOM
      1 C1         49.4310   49.5580   34.0803 C.2         1 MOL       0.1404
      2 C2         49.1445   49.7924   32.7577 C.2         1 MOL       0.0782
      3 C3         47.7892   49.8754   32.3792 C.2         1 MOL       0.0387
      4 N4         46.8325   49.7259   33.2890 N.2         1 MOL      -0.2660
      5 N5         48.4099   49.4569   34.9859 N.pl3       1 MOL      -0.1859
      6 C6         47.1315   49.5107   34.5842 C.2         1 MOL       0.1941
      7 N7         46.2950   49.3783   35.6192 N.2         1 MOL      -0.3175
      8 C8         47.0285   49.2321   36.7429 C.2         1 MOL       0.0787
      9 C9         48.3620   49.3124   36.3282 C.2         1 MOL       0.0743
     10 C10        46.4195   49.1102   37.9984 C.2         1 MOL       0.1958
     11 O11        45.3157   49.6429   38.0281 O.2         1 MOL      -0.3941
     12 N12        46.8476   48.5031   39.1284 N.am        1 MOL      -0.2710
     13 C13        47.3065   50.1413   31.0266 C.3         1 MOL      -0.0096
     14 C14        50.7360   49.3838   34.5647 C.ar        1 MOL       0.0400
     15 C15        50.2121   50.0610   31.7753 C.3         1 MOL       0.0036
     16 N16        50.7182   51.4280   31.9359 N.4         1 MOL       0.2296
     17 C17        51.2233   50.3086   35.5178 C.ar        1 MOL      -0.0470
     18 C18        52.4736   50.1258   36.1306 C.ar        1 MOL      -0.0451
     19 C19        53.2893   49.0454   35.7555 C.ar        1 MOL       0.0429
     20 C20        52.8306   48.1253   34.7925 C.ar        1 MOL      -0.0313
     21 C21        51.5499   48.2680   34.2184 C.ar        1 MOL       0.0551
     22 CL22       51.0340   47.0522   33.1461 Cl          1 MOL      -0.0670
     23 CL23       54.8056   48.8523   36.4801 Cl          1 MOL      -0.0685
     24 C24        46.0260   48.4566   40.3424 C.3         1 MOL       0.0564
     25 C25        46.7826   49.1668   41.4948 C.3         1 MOL       0.0680
     26 O26        48.1143   48.6325   41.6478 O.3         1 MOL      -0.3758
     27 C27        48.8882   48.6307   40.4304 C.3         1 MOL       0.0680
     28 C28        48.1327   47.8625   39.3147 C.3         1 MOL       0.0564
     29 H1         49.1762   49.3312   36.9390 H           1 MOL       0.0902
     30 H2         46.2181   50.2344   30.9859 H           1 MOL       0.0451
     31 H3         47.5938   49.3267   30.3585 H           1 MOL       0.0451
     32 H4         47.7265   51.0759   30.6502 H           1 MOL       0.0451
     33 H5         49.8754   49.9679   30.7441 H           1 MOL       0.0958
     34 H6         51.0418   49.3619   31.8738 H           1 MOL       0.0958
     35 H7         51.4498   51.6053   31.2455 H           1 MOL       0.2006
     36 H8         51.1040   51.5561   32.8720 H           1 MOL       0.2006
     37 H9         49.9507   52.0871   31.7943 H           1 MOL       0.2006
     38 H10        50.6549   51.1113   35.8025 H           1 MOL       0.0642
     39 H11        52.7738   50.7788   36.8585 H           1 MOL       0.0629
     40 H12        53.4263   47.3350   34.5288 H           1 MOL       0.0634
     41 H13        45.8502   47.4124   40.6222 H           1 MOL       0.0544
     42 H14        45.0392   48.9142   40.2540 H           1 MOL       0.0544
     43 H15        46.2363   49.0226   42.4305 H           1 MOL       0.0580
     44 H16        46.8426   50.2390   41.3014 H           1 MOL       0.0580
     45 H17        49.8376   48.1447   40.6424 H           1 MOL       0.0580
     46 H18        49.0990   49.6552   40.1124 H           1 MOL       0.0580
     47 H19        48.7534   47.8039   38.4319 H           1 MOL       0.0544
     48 H20        47.9833   46.8331   39.6392 H           1 MOL       0.0544
@<TRIPOS>BOND
     1     1     2   2
     2     1     5   1
     3     1    14   1
     4     2     3   1
     5     2    15   1
     6     3     4   2
     7     3    13   1
     8     4     6   1
     9     5     6   1
    10     5     9   1
    11     6     7   2
    12     7     8   1
    13     8     9   2
    14     8    10   1
    15    10    11   2
    16    10    12  am
    17    12    24   1
    18    12    28   1
    19    14    17  ar
    20    14    21  ar
    21    15    16   1
    22    17    18  ar
    23    18    19  ar
    24    19    20  ar
    25    19    23   1
    26    20    21  ar
    27    21    22   1
    28    24    25   1
    29    25    26   1
    30    26    27   1
    31    27    28   1
    32     9    29   1
    33    13    30   1
    34    13    31   1
    35    13    32   1
    36    15    33   1
    37    15    34   1
    38    16    35   1
    39    16    36   1
    40    16    37   1
    41    17    38   1
    42    18    39   1
    43    20    40   1
    44    24    41   1
    45    24    42   1
    46    25    43   1
    47    25    44   1
    48    27    45   1
    49    27    46   1
    50    28    47   1
    51    28    48   1
@<TRIPOS>SUBSTRUCTURE
     1  MOL      1

