@<TRIPOS>MOLECULE
3nox_ligand_071
    48    51
SMALL
GAST_HUCK
****
This file was generated by PARSER (from files_GN.cpp)

@<TRIPOS>ATOM
      1 C1         48.0408   48.8815   34.3094 C.2         1 MOL       0.1404
      2 C2         46.9547   49.5969   34.7502 C.2         1 MOL       0.0782
      3 C3         47.1934   50.7349   35.5476 C.2         1 MOL       0.0387
      4 N4         48.4366   51.0785   35.8751 N.2         1 MOL      -0.2660
      5 N5         49.2951   49.2768   34.6826 N.pl3       1 MOL      -0.1859
      6 C6         49.4881   50.3620   35.4510 C.2         1 MOL       0.1941
      7 N7         50.7899   50.5811   35.6889 N.2         1 MOL      -0.3175
      8 C8         51.4628   49.6114   35.0501 C.2         1 MOL       0.0787
      9 C9         50.5272   48.7820   34.4379 C.2         1 MOL       0.0743
     10 C10        52.8487   49.5416   35.0420 C.2         1 MOL       0.1958
     11 O11        53.3363   49.5767   36.1574 O.2         1 MOL      -0.3941
     12 N12        53.6319   49.6177   33.9407 N.am        1 MOL      -0.2710
     13 C13        46.1679   51.6475   36.0453 C.3         1 MOL      -0.0096
     14 C14        47.9415   47.7858   33.4397 C.ar        1 MOL       0.0400
     15 C15        45.5732   49.2433   34.3558 C.3         1 MOL       0.0036
     16 N16        45.3025   49.6138   32.9627 N.4         1 MOL       0.2296
     17 C17        47.4654   46.5420   33.9275 C.ar        1 MOL      -0.0470
     18 C18        47.3770   45.4232   33.0839 C.ar        1 MOL      -0.0451
     19 C19        47.7994   45.5130   31.7456 C.ar        1 MOL       0.0429
     20 C20        48.2951   46.7354   31.2509 C.ar        1 MOL      -0.0313
     21 C21        48.3636   47.8689   32.0819 C.ar        1 MOL       0.0551
     22 CL22       48.9452   49.3096   31.3885 Cl          1 MOL      -0.0670
     23 CL23       47.7207   44.1595   30.7340 Cl          1 MOL      -0.0685
     24 C24        53.1310   49.7177   32.5785 C.3         1 MOL       0.0564
     25 C25        53.6238   51.0341   31.9215 C.3         1 MOL       0.0680
     26 O26        55.0567   51.1576   32.0269 O.3         1 MOL      -0.3758
     27 C27        55.5422   51.0635   33.3836 C.3         1 MOL       0.0680
     28 C28        55.0793   49.7380   34.0455 C.3         1 MOL       0.0564
     29 H1         50.7527   47.9437   33.8927 H           1 MOL       0.0902
     30 H2         46.5915   52.4975   36.5847 H           1 MOL       0.0451
     31 H3         45.5043   51.1216   36.7322 H           1 MOL       0.0451
     32 H4         45.5854   52.0457   35.2128 H           1 MOL       0.0451
     33 H5         44.8252   49.7425   34.9706 H           1 MOL       0.0958
     34 H6         45.3767   48.1783   34.4759 H           1 MOL       0.0958
     35 H7         44.3354   49.3791   32.7332 H           1 MOL       0.2006
     36 H8         45.9241   49.1029   32.3363 H           1 MOL       0.2006
     37 H9         45.4454   50.6175   32.8379 H           1 MOL       0.2006
     38 H10        47.1766   46.4471   34.9058 H           1 MOL       0.0642
     39 H11        47.0056   44.5434   33.4472 H           1 MOL       0.0629
     40 H12        48.6122   46.7927   30.2801 H           1 MOL       0.0634
     41 H13        52.0462   49.6938   32.4885 H           1 MOL       0.0544
     42 H14        53.5138   48.8742   32.0010 H           1 MOL       0.0544
     43 H15        53.1402   51.8963   32.3919 H           1 MOL       0.0580
     44 H16        53.3590   51.0378   30.8616 H           1 MOL       0.0580
     45 H17        55.1929   51.9239   33.9656 H           1 MOL       0.0580
     46 H18        56.6353   51.1022   33.3556 H           1 MOL       0.0580
     47 H19        55.5427   48.9033   33.5188 H           1 MOL       0.0544
     48 H20        55.4635   49.7223   35.0653 H           1 MOL       0.0544
@<TRIPOS>BOND
     1     1     2   2
     2     1     5   1
     3     1    14   1
     4     2     3   1
     5     2    15   1
     6     3     4   2
     7     3    13   1
     8     4     6   1
     9     5     6   1
    10     5     9   1
    11     6     7   2
    12     7     8   1
    13     8     9   2
    14     8    10   1
    15    10    11   2
    16    10    12  am
    17    12    24   1
    18    12    28   1
    19    14    17  ar
    20    14    21  ar
    21    15    16   1
    22    17    18  ar
    23    18    19  ar
    24    19    20  ar
    25    19    23   1
    26    20    21  ar
    27    21    22   1
    28    24    25   1
    29    25    26   1
    30    26    27   1
    31    27    28   1
    32     9    29   1
    33    13    30   1
    34    13    31   1
    35    13    32   1
    36    15    33   1
    37    15    34   1
    38    16    35   1
    39    16    36   1
    40    16    37   1
    41    17    38   1
    42    18    39   1
    43    20    40   1
    44    24    41   1
    45    24    42   1
    46    25    43   1
    47    25    44   1
    48    27    45   1
    49    27    46   1
    50    28    47   1
    51    28    48   1
@<TRIPOS>SUBSTRUCTURE
     1  MOL      1

