@<TRIPOS>MOLECULE
3nox_ligand_075
    48    51
SMALL
GAST_HUCK
****
This file was generated by PARSER (from files_GN.cpp)

@<TRIPOS>ATOM
      1 C1         49.6466   48.1574   32.0907 C.2         1 MOL       0.1404
      2 C2         49.2582   47.1009   31.3077 C.2         1 MOL       0.0782
      3 C3         49.9693   45.8927   31.4338 C.2         1 MOL       0.0387
      4 N4         50.9748   45.7886   32.2950 N.2         1 MOL      -0.2660
      5 N5         50.7008   48.0074   32.9444 N.pl3       1 MOL      -0.1859
      6 C6         51.3504   46.8346   33.0565 C.2         1 MOL       0.1941
      7 N7         52.3389   46.8959   33.9638 N.2         1 MOL      -0.3175
      8 C8         52.3290   48.1525   34.4416 C.2         1 MOL       0.0787
      9 C9         51.3049   48.8457   33.8085 C.2         1 MOL       0.0743
     10 C10        53.1756   48.6764   35.3960 C.2         1 MOL       0.1958
     11 O11        53.0396   48.1911   36.5112 O.2         1 MOL      -0.3941
     12 N12        54.0572   49.6653   35.1694 N.am        1 MOL      -0.2710
     13 C13        49.7012   44.6782   30.6710 C.3         1 MOL      -0.0096
     14 C14        48.9901   49.3930   32.1042 C.ar        1 MOL       0.0400
     15 C15        48.1316   47.2014   30.3557 C.3         1 MOL       0.0036
     16 N16        46.8936   46.6316   30.9084 N.4         1 MOL       0.2296
     17 C17        47.7263   49.4875   32.7366 C.ar        1 MOL      -0.0470
     18 C18        47.0493   50.7163   32.8048 C.ar        1 MOL      -0.0451
     19 C19        47.6329   51.8719   32.2564 C.ar        1 MOL       0.0429
     20 C20        48.8911   51.7952   31.6318 C.ar        1 MOL      -0.0313
     21 C21        49.5737   50.5640   31.5480 C.ar        1 MOL       0.0551
     22 CL22       51.0796   50.5557   30.7593 Cl          1 MOL      -0.0670
     23 CL23       46.8239   53.3543   32.3532 Cl          1 MOL      -0.0685
     24 C24        54.6851   50.4051   36.2540 C.3         1 MOL       0.0564
     25 C25        54.4187   51.9181   36.0465 C.3         1 MOL       0.0680
     26 O26        54.8183   52.3417   34.7252 O.3         1 MOL      -0.3758
     27 C27        54.1976   51.5875   33.6626 C.3         1 MOL       0.0680
     28 C28        54.4750   50.0760   33.8365 C.3         1 MOL       0.0564
     29 H1         51.0512   49.8222   33.9857 H           1 MOL       0.0902
     30 H2         50.4035   43.8747   30.9065 H           1 MOL       0.0451
     31 H3         49.7895   44.8732   29.6022 H           1 MOL       0.0451
     32 H4         48.6966   44.3150   30.8908 H           1 MOL       0.0451
     33 H5         48.3640   46.6936   29.4185 H           1 MOL       0.0958
     34 H6         47.9132   48.2303   30.0731 H           1 MOL       0.0958
     35 H7         46.1452   46.7259   30.2189 H           1 MOL       0.2006
     36 H8         46.6257   47.1332   31.7564 H           1 MOL       0.2006
     37 H9         47.0240   45.6446   31.1301 H           1 MOL       0.2006
     38 H10        47.2936   48.6654   33.1666 H           1 MOL       0.0642
     39 H11        46.1391   50.7641   33.2681 H           1 MOL       0.0629
     40 H12        49.3116   52.6403   31.2372 H           1 MOL       0.0634
     41 H13        55.7648   50.2250   36.2480 H           1 MOL       0.0544
     42 H14        54.3148   50.1327   37.2468 H           1 MOL       0.0544
     43 H15        54.9851   52.4953   36.7814 H           1 MOL       0.0580
     44 H16        53.3557   52.1280   36.1956 H           1 MOL       0.0580
     45 H17        54.6109   51.9231   32.7101 H           1 MOL       0.0580
     46 H18        53.1183   51.7688   33.6493 H           1 MOL       0.0580
     47 H19        53.9928   49.5375   33.0200 H           1 MOL       0.0544
     48 H20        55.5488   49.8948   33.7326 H           1 MOL       0.0544
@<TRIPOS>BOND
     1     1     2   2
     2     1     5   1
     3     1    14   1
     4     2     3   1
     5     2    15   1
     6     3     4   2
     7     3    13   1
     8     4     6   1
     9     5     6   1
    10     5     9   1
    11     6     7   2
    12     7     8   1
    13     8     9   2
    14     8    10   1
    15    10    11   2
    16    10    12  am
    17    12    24   1
    18    12    28   1
    19    14    17  ar
    20    14    21  ar
    21    15    16   1
    22    17    18  ar
    23    18    19  ar
    24    19    20  ar
    25    19    23   1
    26    20    21  ar
    27    21    22   1
    28    24    25   1
    29    25    26   1
    30    26    27   1
    31    27    28   1
    32     9    29   1
    33    13    30   1
    34    13    31   1
    35    13    32   1
    36    15    33   1
    37    15    34   1
    38    16    35   1
    39    16    36   1
    40    16    37   1
    41    17    38   1
    42    18    39   1
    43    20    40   1
    44    24    41   1
    45    24    42   1
    46    25    43   1
    47    25    44   1
    48    27    45   1
    49    27    46   1
    50    28    47   1
    51    28    48   1
@<TRIPOS>SUBSTRUCTURE
     1  MOL      1

