@<TRIPOS>MOLECULE
3nox_ligand_022
    48    51
SMALL
GAST_HUCK
****
This file was generated by PARSER (from files_GN.cpp)

@<TRIPOS>ATOM
      1 C1         47.5459   49.5796   33.3028 C.2         1 MOL       0.1404
      2 C2         46.4959   50.4557   33.2249 C.2         1 MOL       0.0782
      3 C3         45.3333   50.0311   32.5533 C.2         1 MOL       0.0387
      4 N4         45.2816   48.8265   31.9955 N.2         1 MOL      -0.2660
      5 N5         47.4408   48.3461   32.7352 N.pl3       1 MOL      -0.1859
      6 C6         46.3252   47.9810   32.0759 C.2         1 MOL       0.1941
      7 N7         46.4294   46.7504   31.5594 N.2         1 MOL      -0.3175
      8 C8         47.6455   46.3095   31.9091 C.2         1 MOL       0.0787
      9 C9         48.2823   47.2946   32.6591 C.2         1 MOL       0.0743
     10 C10        48.1151   45.0732   31.5495 C.2         1 MOL       0.1958
     11 O11        47.7506   44.1768   32.3010 O.2         1 MOL      -0.3941
     12 N12        48.7394   44.8202   30.3852 N.am        1 MOL      -0.2710
     13 C13        44.1286   50.8318   32.3748 C.3         1 MOL      -0.0096
     14 C14        48.7709   49.9042   33.8905 C.ar        1 MOL       0.0400
     15 C15        46.5494   51.7990   33.8388 C.3         1 MOL       0.0036
     16 N16        45.8887   51.8207   35.1520 N.4         1 MOL       0.2296
     17 C17        48.9674   49.6424   35.2667 C.ar        1 MOL      -0.0470
     18 C18        50.1919   49.9533   35.8860 C.ar        1 MOL      -0.0451
     19 C19        51.2378   50.5227   35.1362 C.ar        1 MOL       0.0429
     20 C20        51.0541   50.7802   33.7649 C.ar        1 MOL      -0.0313
     21 C21        49.8297   50.4775   33.1365 C.ar        1 MOL       0.0551
     22 CL22       49.6845   50.8256   31.4781 Cl          1 MOL      -0.0670
     23 CL23       52.7146   50.8830   35.8804 Cl          1 MOL      -0.0685
     24 C24        48.9281   43.4599   29.9098 C.3         1 MOL       0.0564
     25 C25        48.2933   43.3146   28.5025 C.3         1 MOL       0.0680
     26 O26        48.7805   44.3355   27.6076 O.3         1 MOL      -0.3758
     27 C27        48.5909   45.6807   28.0947 C.3         1 MOL       0.0680
     28 C28        49.2416   45.8502   29.4889 C.3         1 MOL       0.0564
     29 H1         49.2203   47.2297   33.0611 H           1 MOL       0.0902
     30 H2         43.3468   50.2975   31.8244 H           1 MOL       0.0451
     31 H3         44.3554   51.7368   31.8088 H           1 MOL       0.0451
     32 H4         43.7127   51.1084   33.3429 H           1 MOL       0.0451
     33 H5         46.0844   52.5435   33.1931 H           1 MOL       0.0958
     34 H6         47.5660   52.1695   34.0006 H           1 MOL       0.0958
     35 H7         46.0337   52.7519   35.5434 H           1 MOL       0.2006
     36 H8         46.3103   51.1270   35.7742 H           1 MOL       0.2006
     37 H9         44.8829   51.6440   35.0720 H           1 MOL       0.2006
     38 H10        48.2228   49.2223   35.8279 H           1 MOL       0.0642
     39 H11        50.3215   49.7637   36.8839 H           1 MOL       0.0629
     40 H12        51.8196   51.1874   33.2219 H           1 MOL       0.0634
     41 H13        48.4847   42.7032   30.5586 H           1 MOL       0.0544
     42 H14        49.9967   43.2454   29.8498 H           1 MOL       0.0544
     43 H15        47.2050   43.3738   28.5751 H           1 MOL       0.0580
     44 H16        48.5552   42.3419   28.0846 H           1 MOL       0.0580
     45 H17        47.5232   45.9183   28.1509 H           1 MOL       0.0580
     46 H18        49.0577   46.3719   27.3875 H           1 MOL       0.0580
     47 H19        50.3227   45.7270   29.3896 H           1 MOL       0.0544
     48 H20        49.0721   46.8727   29.8345 H           1 MOL       0.0544
@<TRIPOS>BOND
     1     1     2   2
     2     1     5   1
     3     1    14   1
     4     2     3   1
     5     2    15   1
     6     3     4   2
     7     3    13   1
     8     4     6   1
     9     5     6   1
    10     5     9   1
    11     6     7   2
    12     7     8   1
    13     8     9   2
    14     8    10   1
    15    10    11   2
    16    10    12  am
    17    12    24   1
    18    12    28   1
    19    14    17  ar
    20    14    21  ar
    21    15    16   1
    22    17    18  ar
    23    18    19  ar
    24    19    20  ar
    25    19    23   1
    26    20    21  ar
    27    21    22   1
    28    24    25   1
    29    25    26   1
    30    26    27   1
    31    27    28   1
    32     9    29   1
    33    13    30   1
    34    13    31   1
    35    13    32   1
    36    15    33   1
    37    15    34   1
    38    16    35   1
    39    16    36   1
    40    16    37   1
    41    17    38   1
    42    18    39   1
    43    20    40   1
    44    24    41   1
    45    24    42   1
    46    25    43   1
    47    25    44   1
    48    27    45   1
    49    27    46   1
    50    28    47   1
    51    28    48   1
@<TRIPOS>SUBSTRUCTURE
     1  MOL      1

