@<TRIPOS>MOLECULE
3nox_ligand_011
    48    51
SMALL
GAST_HUCK
****
This file was generated by PARSER (from files_GN.cpp)

@<TRIPOS>ATOM
      1 C1         47.7456   50.5168   34.4461 C.2         1 MOL       0.1404
      2 C2         47.7815   51.2126   35.6236 C.2         1 MOL       0.0782
      3 C3         49.0135   51.2823   36.2999 C.2         1 MOL       0.0387
      4 N4         50.0981   50.7050   35.7927 N.2         1 MOL      -0.2660
      5 N5         48.8878   49.9554   33.9609 N.pl3       1 MOL      -0.1859
      6 C6         50.0541   50.0376   34.6223 C.2         1 MOL       0.1941
      7 N7         51.0306   49.3827   33.9737 N.2         1 MOL      -0.3175
      8 C8         50.4815   48.8590   32.8616 C.2         1 MOL       0.0787
      9 C9         49.1405   49.2419   32.8489 C.2         1 MOL       0.0743
     10 C10        51.0943   48.0648   31.9000 C.2         1 MOL       0.1958
     11 O11        50.7235   48.3150   30.7597 O.2         1 MOL      -0.3941
     12 N12        51.9341   47.0262   32.1158 N.am        1 MOL      -0.2710
     13 C13        49.2125   51.9331   37.5874 C.3         1 MOL      -0.0096
     14 C14        46.5786   50.3374   33.6956 C.ar        1 MOL       0.0400
     15 C15        46.5592   51.8215   36.1943 C.3         1 MOL       0.0036
     16 N16        45.8055   50.8543   37.0024 N.4         1 MOL       0.2296
     17 C17        45.7721   49.2052   33.9550 C.ar        1 MOL      -0.0470
     18 C18        44.6240   48.9516   33.1864 C.ar        1 MOL      -0.0451
     19 C19        44.2727   49.8222   32.1405 C.ar        1 MOL       0.0429
     20 C20        45.0704   50.9492   31.8678 C.ar        1 MOL      -0.0313
     21 C21        46.2226   51.2144   32.6349 C.ar        1 MOL       0.0551
     22 CL22       47.1472   52.5820   32.2339 Cl          1 MOL      -0.0670
     23 CL23       42.9035   49.5016   31.2009 Cl          1 MOL      -0.0685
     24 C24        52.3347   46.5511   33.4332 C.3         1 MOL       0.0564
     25 C25        53.8774   46.4164   33.5002 C.3         1 MOL       0.0680
     26 O26        54.3544   45.5720   32.4335 O.3         1 MOL      -0.3758
     27 C27        53.9702   46.0329   31.1220 C.3         1 MOL       0.0680
     28 C28        52.4334   46.2032   31.0172 C.3         1 MOL       0.0564
     29 H1         48.4598   48.9823   32.1342 H           1 MOL       0.0902
     30 H2         50.2310   51.8116   37.9680 H           1 MOL       0.0451
     31 H3         48.5330   51.5079   38.3280 H           1 MOL       0.0451
     32 H4         49.0268   53.0038   37.4991 H           1 MOL       0.0451
     33 H5         45.8986   52.2058   35.4137 H           1 MOL       0.0958
     34 H6         46.7794   52.6820   36.8257 H           1 MOL       0.0958
     35 H7         44.9427   51.2945   37.3302 H           1 MOL       0.2006
     36 H8         46.3650   50.5708   37.8075 H           1 MOL       0.2006
     37 H9         45.5708   50.0309   36.4460 H           1 MOL       0.2006
     38 H10        46.0237   48.5482   34.7007 H           1 MOL       0.0642
     39 H11        44.0577   48.1249   33.3859 H           1 MOL       0.0629
     40 H12        44.8136   51.5736   31.0993 H           1 MOL       0.0634
     41 H13        51.8920   45.5662   33.5992 H           1 MOL       0.0544
     42 H14        52.0129   47.1755   34.2620 H           1 MOL       0.0544
     43 H15        54.1640   45.9603   34.4492 H           1 MOL       0.0580
     44 H16        54.3433   47.4045   33.4414 H           1 MOL       0.0580
     45 H17        54.2991   45.2941   30.3887 H           1 MOL       0.0580
     46 H18        54.4654   46.9829   30.8996 H           1 MOL       0.0580
     47 H19        52.2157   46.5987   30.0215 H           1 MOL       0.0544
     48 H20        51.9593   45.2194   31.0804 H           1 MOL       0.0544
@<TRIPOS>BOND
     1     1     2   2
     2     1     5   1
     3     1    14   1
     4     2     3   1
     5     2    15   1
     6     3     4   2
     7     3    13   1
     8     4     6   1
     9     5     6   1
    10     5     9   1
    11     6     7   2
    12     7     8   1
    13     8     9   2
    14     8    10   1
    15    10    11   2
    16    10    12  am
    17    12    24   1
    18    12    28   1
    19    14    17  ar
    20    14    21  ar
    21    15    16   1
    22    17    18  ar
    23    18    19  ar
    24    19    20  ar
    25    19    23   1
    26    20    21  ar
    27    21    22   1
    28    24    25   1
    29    25    26   1
    30    26    27   1
    31    27    28   1
    32     9    29   1
    33    13    30   1
    34    13    31   1
    35    13    32   1
    36    15    33   1
    37    15    34   1
    38    16    35   1
    39    16    36   1
    40    16    37   1
    41    17    38   1
    42    18    39   1
    43    20    40   1
    44    24    41   1
    45    24    42   1
    46    25    43   1
    47    25    44   1
    48    27    45   1
    49    27    46   1
    50    28    47   1
    51    28    48   1
@<TRIPOS>SUBSTRUCTURE
     1  MOL      1

