@<TRIPOS>MOLECULE
3nox_ligand_073
    48    51
SMALL
GAST_HUCK
****
This file was generated by PARSER (from files_GN.cpp)

@<TRIPOS>ATOM
      1 C1         53.3706   57.0075   34.4560 C.2         1 MOL       0.1404
      2 C2         52.8703   57.8934   35.3842 C.2         1 MOL       0.0782
      3 C3         52.3468   59.1141   34.9150 C.2         1 MOL       0.0387
      4 N4         52.4720   59.4400   33.6386 N.2         1 MOL      -0.2660
      5 N5         53.3598   57.3502   33.1310 N.pl3       1 MOL      -0.1859
      6 C6         52.9751   58.5744   32.7390 C.2         1 MOL       0.1941
      7 N7         53.1399   58.7449   31.4227 N.2         1 MOL      -0.3175
      8 C8         53.5622   57.5695   30.9213 C.2         1 MOL       0.0787
      9 C9         53.6984   56.6907   32.0004 C.2         1 MOL       0.0743
     10 C10        53.8504   57.3555   29.5828 C.2         1 MOL       0.1958
     11 O11        54.6164   58.1973   29.1124 O.2         1 MOL      -0.3941
     12 N12        53.3602   56.3734   28.7926 N.am        1 MOL      -0.2710
     13 C13        51.6102   60.0935   35.7157 C.3         1 MOL      -0.0096
     14 C14        53.9963   55.8007   34.7949 C.ar        1 MOL       0.0400
     15 C15        52.9906   57.6888   36.8397 C.3         1 MOL       0.0036
     16 N16        51.6947   57.3931   37.4769 N.4         1 MOL       0.2296
     17 C17        55.3390   55.5915   34.3853 C.ar        1 MOL      -0.0470
     18 C18        56.0098   54.3934   34.6821 C.ar        1 MOL      -0.0451
     19 C19        55.3556   53.3747   35.3996 C.ar        1 MOL       0.0429
     20 C20        54.0204   53.5616   35.8076 C.ar        1 MOL      -0.0313
     21 C21        53.3382   54.7600   35.5034 C.ar        1 MOL       0.0551
     22 CL22       51.7165   54.8874   36.0021 Cl          1 MOL      -0.0670
     23 CL23       56.1532   51.9252   35.7395 Cl          1 MOL      -0.0685
     24 C24        53.8046   56.1954   27.4185 C.3         1 MOL       0.0564
     25 C25        52.5953   56.2166   26.4372 C.3         1 MOL       0.0680
     26 O26        51.3477   55.7756   27.0197 O.3         1 MOL      -0.3758
     27 C27        51.4966   54.8217   28.0870 C.3         1 MOL       0.0680
     28 C28        52.3037   55.4735   29.2444 C.3         1 MOL       0.0564
     29 H1         54.0458   55.7347   31.9451 H           1 MOL       0.0902
     30 H2         51.3496   60.9890   35.1410 H           1 MOL       0.0451
     31 H3         52.1968   60.4236   36.5750 H           1 MOL       0.0451
     32 H4         50.6749   59.6577   36.0667 H           1 MOL       0.0451
     33 H5         53.4225   58.5738   37.3055 H           1 MOL       0.0958
     34 H6         53.6580   56.8709   37.0972 H           1 MOL       0.0958
     35 H7         51.7744   57.4815   38.4932 H           1 MOL       0.2006
     36 H8         51.4193   56.4370   37.2395 H           1 MOL       0.2006
     37 H9         50.9763   58.0360   37.1412 H           1 MOL       0.2006
     38 H10        55.8403   56.3138   33.8660 H           1 MOL       0.0642
     39 H11        56.9721   54.2633   34.3722 H           1 MOL       0.0629
     40 H12        53.5361   52.8118   36.3071 H           1 MOL       0.0634
     41 H13        54.2905   55.2169   27.3521 H           1 MOL       0.0544
     42 H14        54.5443   56.9256   27.0754 H           1 MOL       0.0544
     43 H15        52.8193   55.5929   25.5663 H           1 MOL       0.0580
     44 H16        52.4366   57.2377   26.0821 H           1 MOL       0.0580
     45 H17        52.0001   53.9234   27.7180 H           1 MOL       0.0580
     46 H18        50.5033   54.5309   28.4373 H           1 MOL       0.0580
     47 H19        51.5828   56.0308   29.8469 H           1 MOL       0.0544
     48 H20        52.7341   54.6851   29.8645 H           1 MOL       0.0544
@<TRIPOS>BOND
     1     1     2   2
     2     1     5   1
     3     1    14   1
     4     2     3   1
     5     2    15   1
     6     3     4   2
     7     3    13   1
     8     4     6   1
     9     5     6   1
    10     5     9   1
    11     6     7   2
    12     7     8   1
    13     8     9   2
    14     8    10   1
    15    10    11   2
    16    10    12  am
    17    12    24   1
    18    12    28   1
    19    14    17  ar
    20    14    21  ar
    21    15    16   1
    22    17    18  ar
    23    18    19  ar
    24    19    20  ar
    25    19    23   1
    26    20    21  ar
    27    21    22   1
    28    24    25   1
    29    25    26   1
    30    26    27   1
    31    27    28   1
    32     9    29   1
    33    13    30   1
    34    13    31   1
    35    13    32   1
    36    15    33   1
    37    15    34   1
    38    16    35   1
    39    16    36   1
    40    16    37   1
    41    17    38   1
    42    18    39   1
    43    20    40   1
    44    24    41   1
    45    24    42   1
    46    25    43   1
    47    25    44   1
    48    27    45   1
    49    27    46   1
    50    28    47   1
    51    28    48   1
@<TRIPOS>SUBSTRUCTURE
     1  MOL      1

