@<TRIPOS>MOLECULE
3nox_ligand_019
    48    51
SMALL
GAST_HUCK
****
This file was generated by PARSER (from files_GN.cpp)

@<TRIPOS>ATOM
      1 C1         58.2434   46.8096   32.3780 C.2         1 MOL       0.1404
      2 C2         59.2710   47.4798   31.7651 C.2         1 MOL       0.0782
      3 C3         58.9940   48.1326   30.5487 C.2         1 MOL       0.0387
      4 N4         57.7766   48.0809   30.0182 N.2         1 MOL      -0.2660
      5 N5         57.0226   46.7524   31.7756 N.pl3       1 MOL      -0.1859
      6 C6         56.7841   47.3931   30.6158 C.2         1 MOL       0.1941
      7 N7         55.5127   47.2335   30.2167 N.2         1 MOL      -0.3175
      8 C8         54.9168   46.4341   31.1208 C.2         1 MOL       0.0787
      9 C9         55.8638   46.1477   32.1061 C.2         1 MOL       0.0743
     10 C10        53.5826   46.0497   31.0971 C.2         1 MOL       0.1958
     11 O11        52.8203   46.9317   30.7168 O.2         1 MOL      -0.3941
     12 N12        53.0924   44.8442   31.4513 N.am        1 MOL      -0.2710
     13 C13        59.9576   48.9221   29.7927 C.3         1 MOL      -0.0096
     14 C14        58.3614   46.2184   33.6398 C.ar        1 MOL       0.0400
     15 C15        60.6095   47.5675   32.3873 C.3         1 MOL       0.0036
     16 N16        60.6534   48.6189   33.4112 N.4         1 MOL       0.2296
     17 C17        58.8630   44.8991   33.7444 C.ar        1 MOL      -0.0470
     18 C18        58.9859   44.2783   35.0007 C.ar        1 MOL      -0.0451
     19 C19        58.6024   44.9608   36.1687 C.ar        1 MOL       0.0429
     20 C20        58.0761   46.2613   36.0724 C.ar        1 MOL      -0.0313
     21 C21        57.9456   46.8930   34.8189 C.ar        1 MOL       0.0551
     22 CL22       57.2835   48.4575   34.7970 Cl          1 MOL      -0.0670
     23 CL23       58.7487   44.2159   37.6821 Cl          1 MOL      -0.0685
     24 C24        51.6714   44.6224   31.6806 C.3         1 MOL       0.0564
     25 C25        51.1342   43.5599   30.6883 C.3         1 MOL       0.0680
     26 O26        51.9254   42.3562   30.7444 O.3         1 MOL      -0.3758
     27 C27        53.3374   42.5758   30.5431 C.3         1 MOL       0.0680
     28 C28        53.9012   43.6368   31.5249 C.3         1 MOL       0.0564
     29 H1         55.6939   45.5906   32.9464 H           1 MOL       0.0902
     30 H2         59.5137   49.3917   28.9106 H           1 MOL       0.0451
     31 H3         60.7719   48.2823   29.4488 H           1 MOL       0.0451
     32 H4         60.3635   49.7169   30.4207 H           1 MOL       0.0451
     33 H5         61.4008   47.7898   31.6723 H           1 MOL       0.0958
     34 H6         60.8929   46.6169   32.8413 H           1 MOL       0.0958
     35 H7         61.5771   48.6378   33.8509 H           1 MOL       0.2006
     36 H8         59.9497   48.4403   34.1291 H           1 MOL       0.2006
     37 H9         60.4702   49.5256   32.9750 H           1 MOL       0.2006
     38 H10        59.1418   44.3784   32.9084 H           1 MOL       0.0642
     39 H11        59.3455   43.3244   35.0637 H           1 MOL       0.0629
     40 H12        57.7811   46.7457   36.9216 H           1 MOL       0.0634
     41 H13        51.0559   45.5221   31.5913 H           1 MOL       0.0544
     42 H14        51.5332   44.2497   32.6995 H           1 MOL       0.0544
     43 H15        51.1325   43.9641   29.6713 H           1 MOL       0.0580
     44 H16        50.1054   43.3027   30.9514 H           1 MOL       0.0580
     45 H17        53.5180   42.8933   29.5123 H           1 MOL       0.0580
     46 H18        53.8549   41.6278   30.6978 H           1 MOL       0.0580
     47 H19        53.8714   43.2406   32.5442 H           1 MOL       0.0544
     48 H20        54.9493   43.7863   31.2619 H           1 MOL       0.0544
@<TRIPOS>BOND
     1     1     2   2
     2     1     5   1
     3     1    14   1
     4     2     3   1
     5     2    15   1
     6     3     4   2
     7     3    13   1
     8     4     6   1
     9     5     6   1
    10     5     9   1
    11     6     7   2
    12     7     8   1
    13     8     9   2
    14     8    10   1
    15    10    11   2
    16    10    12  am
    17    12    24   1
    18    12    28   1
    19    14    17  ar
    20    14    21  ar
    21    15    16   1
    22    17    18  ar
    23    18    19  ar
    24    19    20  ar
    25    19    23   1
    26    20    21  ar
    27    21    22   1
    28    24    25   1
    29    25    26   1
    30    26    27   1
    31    27    28   1
    32     9    29   1
    33    13    30   1
    34    13    31   1
    35    13    32   1
    36    15    33   1
    37    15    34   1
    38    16    35   1
    39    16    36   1
    40    16    37   1
    41    17    38   1
    42    18    39   1
    43    20    40   1
    44    24    41   1
    45    24    42   1
    46    25    43   1
    47    25    44   1
    48    27    45   1
    49    27    46   1
    50    28    47   1
    51    28    48   1
@<TRIPOS>SUBSTRUCTURE
     1  MOL      1

