@<TRIPOS>MOLECULE
3nox_ligand_083
    48    51
SMALL
GAST_HUCK
****
This file was generated by PARSER (from files_GN.cpp)

@<TRIPOS>ATOM
      1 C1         46.6950   49.2592   35.8073 C.2         1 MOL       0.1404
      2 C2         46.2384   50.4388   35.2803 C.2         1 MOL       0.0782
      3 C3         45.5938   50.3898   34.0305 C.2         1 MOL       0.0387
      4 N4         45.4223   49.2321   33.4017 N.2         1 MOL      -0.2660
      5 N5         46.5147   48.0974   35.1185 N.pl3       1 MOL      -0.1859
      6 C6         45.8724   48.0813   33.9365 C.2         1 MOL       0.1941
      7 N7         45.7922   46.8411   33.4374 N.2         1 MOL      -0.3175
      8 C8         46.3909   46.0199   34.3187 C.2         1 MOL       0.0787
      9 C9         46.8625   46.8192   35.3653 C.2         1 MOL       0.0743
     10 C10        46.5708   44.6500   34.1545 C.2         1 MOL       0.1958
     11 O11        47.7008   44.2499   34.4181 O.2         1 MOL      -0.3941
     12 N12        45.6544   43.7795   33.6836 N.am        1 MOL      -0.2710
     13 C13        45.0987   51.5564   33.3118 C.3         1 MOL      -0.0096
     14 C14        47.2705   49.1648   37.0761 C.ar        1 MOL       0.0400
     15 C15        46.3304   51.7115   36.0199 C.3         1 MOL       0.0036
     16 N16        45.0799   51.9887   36.7345 N.4         1 MOL       0.2296
     17 C17        46.5790   48.4586   38.0901 C.ar        1 MOL      -0.0470
     18 C18        47.1230   48.3476   39.3842 C.ar        1 MOL      -0.0451
     19 C19        48.3614   48.9461   39.6813 C.ar        1 MOL       0.0429
     20 C20        49.0523   49.6620   38.6821 C.ar        1 MOL      -0.0313
     21 C21        48.5153   49.7781   37.3820 C.ar        1 MOL       0.0551
     22 CL22       49.4029   50.6662   36.2323 Cl          1 MOL      -0.0670
     23 CL23       49.0133   48.8183   41.2396 Cl          1 MOL      -0.0685
     24 C24        45.9988   42.4424   33.2163 C.3         1 MOL       0.0564
     25 C25        45.2207   42.0783   31.9177 C.3         1 MOL       0.0680
     26 O26        43.8235   42.4500   31.8947 O.3         1 MOL      -0.3758
     27 C27        43.3027   43.0657   33.0856 C.3         1 MOL       0.0680
     28 C28        44.2551   44.1794   33.5950 C.3         1 MOL       0.0564
     29 H1         47.3781   46.4807   36.1829 H           1 MOL       0.0902
     30 H2         44.6252   51.2883   32.3631 H           1 MOL       0.0451
     31 H3         45.9266   52.2310   33.0820 H           1 MOL       0.0451
     32 H4         44.3582   52.0839   33.9140 H           1 MOL       0.0451
     33 H5         46.5472   52.5446   35.3515 H           1 MOL       0.0958
     34 H6         47.1355   51.7197   36.7547 H           1 MOL       0.0958
     35 H7         45.1450   52.8929   37.2043 H           1 MOL       0.2006
     36 H8         44.9113   51.2607   37.4313 H           1 MOL       0.2006
     37 H9         44.3002   52.0074   36.0753 H           1 MOL       0.2006
     38 H10        45.6774   48.0159   37.8896 H           1 MOL       0.0642
     39 H11        46.6104   47.8328   40.1073 H           1 MOL       0.0629
     40 H12        49.9526   50.0964   38.9007 H           1 MOL       0.0634
     41 H13        45.7401   41.7194   33.9978 H           1 MOL       0.0544
     42 H14        47.0608   42.3249   32.9867 H           1 MOL       0.0544
     43 H15        45.3004   41.0000   31.7329 H           1 MOL       0.0580
     44 H16        45.6950   42.5974   31.0770 H           1 MOL       0.0580
     45 H17        43.1808   42.3027   33.8592 H           1 MOL       0.0580
     46 H18        42.3212   43.4856   32.8620 H           1 MOL       0.0580
     47 H19        44.1716   45.0232   32.9052 H           1 MOL       0.0544
     48 H20        43.8977   44.5004   34.5793 H           1 MOL       0.0544
@<TRIPOS>BOND
     1     1     2   2
     2     1     5   1
     3     1    14   1
     4     2     3   1
     5     2    15   1
     6     3     4   2
     7     3    13   1
     8     4     6   1
     9     5     6   1
    10     5     9   1
    11     6     7   2
    12     7     8   1
    13     8     9   2
    14     8    10   1
    15    10    11   2
    16    10    12  am
    17    12    24   1
    18    12    28   1
    19    14    17  ar
    20    14    21  ar
    21    15    16   1
    22    17    18  ar
    23    18    19  ar
    24    19    20  ar
    25    19    23   1
    26    20    21  ar
    27    21    22   1
    28    24    25   1
    29    25    26   1
    30    26    27   1
    31    27    28   1
    32     9    29   1
    33    13    30   1
    34    13    31   1
    35    13    32   1
    36    15    33   1
    37    15    34   1
    38    16    35   1
    39    16    36   1
    40    16    37   1
    41    17    38   1
    42    18    39   1
    43    20    40   1
    44    24    41   1
    45    24    42   1
    46    25    43   1
    47    25    44   1
    48    27    45   1
    49    27    46   1
    50    28    47   1
    51    28    48   1
@<TRIPOS>SUBSTRUCTURE
     1  MOL      1

