@<TRIPOS>MOLECULE
3nox_ligand_025
    48    51
SMALL
GAST_HUCK
****
This file was generated by PARSER (from files_GN.cpp)

@<TRIPOS>ATOM
      1 C1         57.2949   46.4464   34.3268 C.2         1 MOL       0.1404
      2 C2         58.5333   46.0915   34.7944 C.2         1 MOL       0.0782
      3 C3         59.2586   45.1290   34.0669 C.2         1 MOL       0.0387
      4 N4         58.7618   44.6220   32.9436 N.2         1 MOL      -0.2660
      5 N5         56.8040   45.8541   33.2016 N.pl3       1 MOL      -0.1859
      6 C6         57.5437   44.9750   32.4989 C.2         1 MOL       0.1941
      7 N7         56.9020   44.5425   31.4040 N.2         1 MOL      -0.3175
      8 C8         55.7002   45.1387   31.4195 C.2         1 MOL       0.0787
      9 C9         55.6318   45.9551   32.5456 C.2         1 MOL       0.0743
     10 C10        54.7300   45.0201   30.4510 C.2         1 MOL       0.1958
     11 O11        55.0263   45.5740   29.4018 O.2         1 MOL      -0.3941
     12 N12        53.5201   44.4587   30.6358 N.am        1 MOL      -0.2710
     13 C13        60.5674   44.6006   34.4301 C.3         1 MOL      -0.0096
     14 C14        56.5321   47.4758   34.8862 C.ar        1 MOL       0.0400
     15 C15        59.0971   46.6858   36.0234 C.3         1 MOL       0.0036
     16 N16        58.7590   45.8686   37.1933 N.4         1 MOL       0.2296
     17 C17        55.6939   47.1986   35.9900 C.ar        1 MOL      -0.0470
     18 C18        54.9078   48.2145   36.5621 C.ar        1 MOL      -0.0451
     19 C19        54.9502   49.5205   36.0396 C.ar        1 MOL       0.0429
     20 C20        55.7862   49.8081   34.9450 C.ar        1 MOL      -0.0313
     21 C21        56.5776   48.7962   34.3640 C.ar        1 MOL       0.0551
     22 CL22       57.5787   49.2328   33.0619 Cl          1 MOL      -0.0670
     23 CL23       53.9945   50.7432   36.7153 Cl          1 MOL      -0.0685
     24 C24        52.4564   44.6060   29.6523 C.3         1 MOL       0.0564
     25 C25        52.0127   43.2113   29.1521 C.3         1 MOL       0.0680
     26 O26        51.6810   42.3522   30.2602 O.3         1 MOL      -0.3758
     27 C27        52.7440   42.2039   31.2241 C.3         1 MOL       0.0680
     28 C28        53.2115   43.5825   31.7601 C.3         1 MOL       0.0564
     29 H1         54.8370   46.5455   32.8016 H           1 MOL       0.0902
     30 H2         60.9192   43.8498   33.7161 H           1 MOL       0.0451
     31 H3         60.5183   44.1214   35.4083 H           1 MOL       0.0451
     32 H4         61.3093   45.4007   34.4513 H           1 MOL       0.0451
     33 H5         58.7185   47.6898   36.2166 H           1 MOL       0.0958
     34 H6         60.1790   46.7977   35.9612 H           1 MOL       0.0958
     35 H7         59.1054   46.3211   38.0425 H           1 MOL       0.2006
     36 H8         59.1813   44.9431   37.1051 H           1 MOL       0.2006
     37 H9         57.7440   45.7743   37.2586 H           1 MOL       0.2006
     38 H10        55.6523   46.2566   36.3899 H           1 MOL       0.0642
     39 H11        54.3061   47.9974   37.3588 H           1 MOL       0.0629
     40 H12        55.8164   50.7596   34.5699 H           1 MOL       0.0634
     41 H13        52.7263   45.2035   28.7762 H           1 MOL       0.0544
     42 H14        51.6074   45.1090   30.1218 H           1 MOL       0.0544
     43 H15        52.8091   42.7608   28.5509 H           1 MOL       0.0580
     44 H16        51.1291   43.3211   28.5192 H           1 MOL       0.0580
     45 H17        53.5912   41.6827   30.7699 H           1 MOL       0.0580
     46 H18        52.3709   41.5892   32.0478 H           1 MOL       0.0580
     47 H19        52.4141   44.0224   32.3647 H           1 MOL       0.0544
     48 H20        54.0594   43.4050   32.4273 H           1 MOL       0.0544
@<TRIPOS>BOND
     1     1     2   2
     2     1     5   1
     3     1    14   1
     4     2     3   1
     5     2    15   1
     6     3     4   2
     7     3    13   1
     8     4     6   1
     9     5     6   1
    10     5     9   1
    11     6     7   2
    12     7     8   1
    13     8     9   2
    14     8    10   1
    15    10    11   2
    16    10    12  am
    17    12    24   1
    18    12    28   1
    19    14    17  ar
    20    14    21  ar
    21    15    16   1
    22    17    18  ar
    23    18    19  ar
    24    19    20  ar
    25    19    23   1
    26    20    21  ar
    27    21    22   1
    28    24    25   1
    29    25    26   1
    30    26    27   1
    31    27    28   1
    32     9    29   1
    33    13    30   1
    34    13    31   1
    35    13    32   1
    36    15    33   1
    37    15    34   1
    38    16    35   1
    39    16    36   1
    40    16    37   1
    41    17    38   1
    42    18    39   1
    43    20    40   1
    44    24    41   1
    45    24    42   1
    46    25    43   1
    47    25    44   1
    48    27    45   1
    49    27    46   1
    50    28    47   1
    51    28    48   1
@<TRIPOS>SUBSTRUCTURE
     1  MOL      1

