@<TRIPOS>MOLECULE
3nox_ligand_052
    48    51
SMALL
GAST_HUCK
****
This file was generated by PARSER (from files_GN.cpp)

@<TRIPOS>ATOM
      1 C1         48.5703   49.3448   35.2363 C.2         1 MOL       0.1404
      2 C2         48.1704   50.3876   36.0332 C.2         1 MOL       0.0782
      3 C3         49.0940   51.4191   36.2809 C.2         1 MOL       0.0387
      4 N4         50.2886   51.4095   35.7013 N.2         1 MOL      -0.2660
      5 N5         49.8164   49.3733   34.6700 N.pl3       1 MOL      -0.1859
      6 C6         50.6612   50.3960   34.8949 C.2         1 MOL       0.1941
      7 N7         51.8240   50.2253   34.2489 N.2         1 MOL      -0.3175
      8 C8         51.7550   49.0532   33.5878 C.2         1 MOL       0.0787
      9 C9         50.4791   48.5364   33.8410 C.2         1 MOL       0.0743
     10 C10        52.7528   48.5684   32.7376 C.2         1 MOL       0.1958
     11 O11        53.4693   49.4503   32.2815 O.2         1 MOL      -0.3941
     12 N12        52.9834   47.2877   32.3676 N.am        1 MOL      -0.2710
     13 C13        48.8851   52.5075   37.2297 C.3         1 MOL      -0.0096
     14 C14        47.7623   48.2348   34.9463 C.ar        1 MOL       0.0400
     15 C15        46.7897   50.5151   36.5457 C.3         1 MOL       0.0036
     16 N16        46.0064   51.4893   35.7648 N.4         1 MOL       0.2296
     17 C17        47.4659   47.9442   33.5927 C.ar        1 MOL      -0.0470
     18 C18        46.7290   46.8019   33.2419 C.ar        1 MOL      -0.0451
     19 C19        46.2499   45.9387   34.2453 C.ar        1 MOL       0.0429
     20 C20        46.5332   46.2147   35.5929 C.ar        1 MOL      -0.0313
     21 C21        47.2875   47.3474   35.9542 C.ar        1 MOL       0.0551
     22 CL22       47.6315   47.5577   37.6079 Cl          1 MOL      -0.0670
     23 CL23       45.3487   44.5646   33.8512 Cl          1 MOL      -0.0685
     24 C24        52.4729   46.1174   33.0663 C.3         1 MOL       0.0564
     25 C25        51.6102   45.2869   32.0788 C.3         1 MOL       0.0680
     26 O26        52.3952   44.9305   30.9195 O.3         1 MOL      -0.3758
     27 C27        52.9772   46.0632   30.2387 C.3         1 MOL       0.0680
     28 C28        53.8046   46.9530   31.2083 C.3         1 MOL       0.0564
     29 H1         50.0977   47.6881   33.4240 H           1 MOL       0.0902
     30 H2         49.7027   53.2331   37.2276 H           1 MOL       0.0451
     31 H3         48.8046   52.1053   38.2397 H           1 MOL       0.0451
     32 H4         47.9706   53.0469   36.9935 H           1 MOL       0.0451
     33 H5         46.7897   50.8067   37.5941 H           1 MOL       0.0958
     34 H6         46.2301   49.5836   36.5133 H           1 MOL       0.0958
     35 H7         45.1093   51.6537   36.2311 H           1 MOL       0.2006
     36 H8         45.8361   51.1149   34.8301 H           1 MOL       0.2006
     37 H9         46.5066   52.3779   35.6851 H           1 MOL       0.2006
     38 H10        47.8079   48.5563   32.8447 H           1 MOL       0.0642
     39 H11        46.5487   46.5990   32.2554 H           1 MOL       0.0629
     40 H12        46.1857   45.5809   36.3157 H           1 MOL       0.0634
     41 H13        51.9066   46.3469   33.9658 H           1 MOL       0.0544
     42 H14        53.3148   45.4991   33.3990 H           1 MOL       0.0544
     43 H15        50.7251   45.8599   31.7816 H           1 MOL       0.0580
     44 H16        51.2782   44.3701   32.5696 H           1 MOL       0.0580
     45 H17        52.1864   46.6615   29.7733 H           1 MOL       0.0580
     46 H18        53.6299   45.6873   29.4483 H           1 MOL       0.0580
     47 H19        54.6888   46.3963   31.5382 H           1 MOL       0.0544
     48 H20        54.1570   47.8225   30.6463 H           1 MOL       0.0544
@<TRIPOS>BOND
     1     1     2   2
     2     1     5   1
     3     1    14   1
     4     2     3   1
     5     2    15   1
     6     3     4   2
     7     3    13   1
     8     4     6   1
     9     5     6   1
    10     5     9   1
    11     6     7   2
    12     7     8   1
    13     8     9   2
    14     8    10   1
    15    10    11   2
    16    10    12  am
    17    12    24   1
    18    12    28   1
    19    14    17  ar
    20    14    21  ar
    21    15    16   1
    22    17    18  ar
    23    18    19  ar
    24    19    20  ar
    25    19    23   1
    26    20    21  ar
    27    21    22   1
    28    24    25   1
    29    25    26   1
    30    26    27   1
    31    27    28   1
    32     9    29   1
    33    13    30   1
    34    13    31   1
    35    13    32   1
    36    15    33   1
    37    15    34   1
    38    16    35   1
    39    16    36   1
    40    16    37   1
    41    17    38   1
    42    18    39   1
    43    20    40   1
    44    24    41   1
    45    24    42   1
    46    25    43   1
    47    25    44   1
    48    27    45   1
    49    27    46   1
    50    28    47   1
    51    28    48   1
@<TRIPOS>SUBSTRUCTURE
     1  MOL      1

