@<TRIPOS>MOLECULE
3nox_ligand_018
    48    51
SMALL
GAST_HUCK
****
This file was generated by PARSER (from files_GN.cpp)

@<TRIPOS>ATOM
      1 C1         55.2213   54.2168   34.6287 C.2         1 MOL       0.1404
      2 C2         56.4142   54.4634   33.9971 C.2         1 MOL       0.0782
      3 C3         56.7095   55.7918   33.6481 C.2         1 MOL       0.0387
      4 N4         55.8633   56.7728   33.9485 N.2         1 MOL      -0.2660
      5 N5         54.3950   55.2556   34.9313 N.pl3       1 MOL      -0.1859
      6 C6         54.7072   56.5154   34.5925 C.2         1 MOL       0.1941
      7 N7         53.7485   57.3731   34.9681 N.2         1 MOL      -0.3175
      8 C8         52.7812   56.6681   35.5866 C.2         1 MOL       0.0787
      9 C9         53.2016   55.3302   35.5479 C.2         1 MOL       0.0743
     10 C10        51.5845   57.1438   36.1463 C.2         1 MOL       0.1958
     11 O11        50.9319   56.2687   36.7043 O.2         1 MOL      -0.3941
     12 N12        51.0654   58.3999   36.1493 N.am        1 MOL      -0.2710
     13 C13        57.9290   56.2175   32.9726 C.3         1 MOL      -0.0096
     14 C14        54.7784   52.9233   34.9316 C.ar        1 MOL       0.0400
     15 C15        57.4091   53.3876   33.8004 C.3         1 MOL       0.0036
     16 N16        58.1321   53.1308   35.0559 N.4         1 MOL       0.2296
     17 C17        54.7358   52.5147   36.2872 C.ar        1 MOL      -0.0470
     18 C18        54.2663   51.2328   36.6391 C.ar        1 MOL      -0.0451
     19 C19        53.8383   50.3428   35.6406 C.ar        1 MOL       0.0429
     20 C20        53.8672   50.7368   34.2918 C.ar        1 MOL      -0.0313
     21 C21        54.3174   52.0263   33.9319 C.ar        1 MOL       0.0551
     22 CL22       54.2918   52.4428   32.2860 Cl          1 MOL      -0.0670
     23 CL23       53.2722   48.8002   36.0599 Cl          1 MOL      -0.0685
     24 C24        51.7592   59.5559   35.6064 C.3         1 MOL       0.0564
     25 C25        51.3060   60.9258   36.1900 C.3         1 MOL       0.0680
     26 O26        49.9102   61.0756   36.5042 O.3         1 MOL      -0.3758
     27 C27        49.0635   59.9535   36.2271 C.3         1 MOL       0.0680
     28 C28        49.7083   58.6137   36.6485 C.3         1 MOL       0.0564
     29 H1         52.6807   54.5339   35.9215 H           1 MOL       0.0902
     30 H2         57.9769   57.3026   32.8387 H           1 MOL       0.0451
     31 H3         57.9917   55.7600   31.9821 H           1 MOL       0.0451
     32 H4         58.8059   55.9176   33.5529 H           1 MOL       0.0451
     33 H5         58.1557   53.6194   33.0390 H           1 MOL       0.0958
     34 H6         56.9394   52.4637   33.4630 H           1 MOL       0.0958
     35 H7         58.8512   52.4210   34.8888 H           1 MOL       0.2006
     36 H8         57.4888   52.7924   35.7781 H           1 MOL       0.2006
     37 H9         58.5798   53.9920   35.3821 H           1 MOL       0.2006
     38 H10        55.0492   53.1420   37.0299 H           1 MOL       0.0642
     39 H11        54.2347   50.9605   37.6256 H           1 MOL       0.0629
     40 H12        53.5523   50.0861   33.5693 H           1 MOL       0.0634
     41 H13        51.5924   59.5647   34.5261 H           1 MOL       0.0544
     42 H14        52.8350   59.5220   35.7951 H           1 MOL       0.0544
     43 H15        51.5936   61.7279   35.5046 H           1 MOL       0.0580
     44 H16        51.8432   61.0934   37.1257 H           1 MOL       0.0580
     45 H17        48.8498   59.9250   35.1609 H           1 MOL       0.0580
     46 H18        48.1172   60.0895   36.7492 H           1 MOL       0.0580
     47 H19        49.7336   58.5566   37.7374 H           1 MOL       0.0544
     48 H20        49.0326   57.8333   36.2856 H           1 MOL       0.0544
@<TRIPOS>BOND
     1     1     2   2
     2     1     5   1
     3     1    14   1
     4     2     3   1
     5     2    15   1
     6     3     4   2
     7     3    13   1
     8     4     6   1
     9     5     6   1
    10     5     9   1
    11     6     7   2
    12     7     8   1
    13     8     9   2
    14     8    10   1
    15    10    11   2
    16    10    12  am
    17    12    24   1
    18    12    28   1
    19    14    17  ar
    20    14    21  ar
    21    15    16   1
    22    17    18  ar
    23    18    19  ar
    24    19    20  ar
    25    19    23   1
    26    20    21  ar
    27    21    22   1
    28    24    25   1
    29    25    26   1
    30    26    27   1
    31    27    28   1
    32     9    29   1
    33    13    30   1
    34    13    31   1
    35    13    32   1
    36    15    33   1
    37    15    34   1
    38    16    35   1
    39    16    36   1
    40    16    37   1
    41    17    38   1
    42    18    39   1
    43    20    40   1
    44    24    41   1
    45    24    42   1
    46    25    43   1
    47    25    44   1
    48    27    45   1
    49    27    46   1
    50    28    47   1
    51    28    48   1
@<TRIPOS>SUBSTRUCTURE
     1  MOL      1

