@<TRIPOS>MOLECULE
3nox_ligand_021
    48    51
SMALL
GAST_HUCK
****
This file was generated by PARSER (from files_GN.cpp)

@<TRIPOS>ATOM
      1 C1         48.1468   49.2929   34.8159 C.2         1 MOL       0.1404
      2 C2         46.9062   49.0921   34.2697 C.2         1 MOL       0.0782
      3 C3         46.8320   48.3468   33.0797 C.2         1 MOL       0.0387
      4 N4         47.9250   47.7991   32.5569 N.2         1 MOL      -0.2660
      5 N5         49.2452   48.7425   34.2247 N.pl3       1 MOL      -0.1859
      6 C6         49.1361   47.9780   33.1245 C.2         1 MOL       0.1941
      7 N7         50.3308   47.4931   32.7499 N.2         1 MOL      -0.3175
      8 C8         51.2486   47.9632   33.6164 C.2         1 MOL       0.0787
      9 C9         50.5583   48.7663   34.5273 C.2         1 MOL       0.0743
     10 C10        52.6229   47.7168   33.6259 C.2         1 MOL       0.1958
     11 O11        53.2906   48.6411   34.0777 O.2         1 MOL      -0.3941
     12 N12        53.2481   46.5913   33.2138 N.am        1 MOL      -0.2710
     13 C13        45.6063   48.1200   32.3263 C.3         1 MOL      -0.0096
     14 C14        48.3585   50.0059   35.9973 C.ar        1 MOL       0.0400
     15 C15        45.6935   49.7013   34.8569 C.3         1 MOL       0.0036
     16 N16        45.5000   51.0626   34.3459 N.4         1 MOL       0.2296
     17 C17        48.9318   51.2959   35.9140 C.ar        1 MOL      -0.0470
     18 C18        49.2445   52.0150   37.0802 C.ar        1 MOL      -0.0451
     19 C19        48.9837   51.4526   38.3424 C.ar        1 MOL       0.0429
     20 C20        48.4126   50.1707   38.4370 C.ar        1 MOL      -0.0313
     21 C21        48.1052   49.4373   37.2743 C.ar        1 MOL       0.0551
     22 CL22       47.4522   47.8807   37.4744 Cl          1 MOL      -0.0670
     23 CL23       49.3622   52.3159   39.7449 Cl          1 MOL      -0.0685
     24 C24        54.6881   46.4234   33.3756 C.3         1 MOL       0.0564
     25 C25        55.3455   45.5845   32.2391 C.3         1 MOL       0.0680
     26 O26        54.4847   44.6261   31.5893 O.3         1 MOL      -0.3758
     27 C27        53.3557   44.2063   32.3688 C.3         1 MOL       0.0680
     28 C28        52.4992   45.4559   32.6945 C.3         1 MOL       0.0564
     29 H1         50.9824   49.2523   35.3208 H           1 MOL       0.0902
     30 H2         45.7883   47.6038   31.3809 H           1 MOL       0.0451
     31 H3         45.1256   49.0721   32.0945 H           1 MOL       0.0451
     32 H4         44.9227   47.5084   32.9143 H           1 MOL       0.0451
     33 H5         45.7386   49.7482   35.9451 H           1 MOL       0.0958
     34 H6         44.7906   49.1338   34.6358 H           1 MOL       0.0958
     35 H7         44.6189   51.4335   34.7078 H           1 MOL       0.2006
     36 H8         45.4619   51.0430   33.3247 H           1 MOL       0.2006
     37 H9         46.2709   51.6642   34.6463 H           1 MOL       0.2006
     38 H10        49.1401   51.7132   35.0023 H           1 MOL       0.0642
     39 H11        49.6704   52.9415   37.0059 H           1 MOL       0.0629
     40 H12        48.2303   49.7650   39.3578 H           1 MOL       0.0634
     41 H13        54.8486   45.9035   34.3247 H           1 MOL       0.0544
     42 H14        55.2306   47.3698   33.4364 H           1 MOL       0.0544
     43 H15        56.2123   45.0512   32.6376 H           1 MOL       0.0580
     44 H16        55.7049   46.2601   31.4594 H           1 MOL       0.0580
     45 H17        53.6851   43.7089   33.2859 H           1 MOL       0.0580
     46 H18        52.7674   43.4945   31.7859 H           1 MOL       0.0580
     47 H19        52.0276   45.7635   31.7554 H           1 MOL       0.0544
     48 H20        51.7160   45.1568   33.3978 H           1 MOL       0.0544
@<TRIPOS>BOND
     1     1     2   2
     2     1     5   1
     3     1    14   1
     4     2     3   1
     5     2    15   1
     6     3     4   2
     7     3    13   1
     8     4     6   1
     9     5     6   1
    10     5     9   1
    11     6     7   2
    12     7     8   1
    13     8     9   2
    14     8    10   1
    15    10    11   2
    16    10    12  am
    17    12    24   1
    18    12    28   1
    19    14    17  ar
    20    14    21  ar
    21    15    16   1
    22    17    18  ar
    23    18    19  ar
    24    19    20  ar
    25    19    23   1
    26    20    21  ar
    27    21    22   1
    28    24    25   1
    29    25    26   1
    30    26    27   1
    31    27    28   1
    32     9    29   1
    33    13    30   1
    34    13    31   1
    35    13    32   1
    36    15    33   1
    37    15    34   1
    38    16    35   1
    39    16    36   1
    40    16    37   1
    41    17    38   1
    42    18    39   1
    43    20    40   1
    44    24    41   1
    45    24    42   1
    46    25    43   1
    47    25    44   1
    48    27    45   1
    49    27    46   1
    50    28    47   1
    51    28    48   1
@<TRIPOS>SUBSTRUCTURE
     1  MOL      1

