@<TRIPOS>MOLECULE
3nox_ligand_066
    48    51
SMALL
GAST_HUCK
****
This file was generated by PARSER (from files_GN.cpp)

@<TRIPOS>ATOM
      1 C1         54.9619   46.7381   33.7941 C.2         1 MOL       0.1404
      2 C2         54.1902   47.6269   34.4974 C.2         1 MOL       0.0782
      3 C3         52.7991   47.6262   34.2694 C.2         1 MOL       0.0387
      4 N4         52.2609   46.7944   33.3857 N.2         1 MOL      -0.2660
      5 N5         54.3635   45.9437   32.8647 N.pl3       1 MOL      -0.1859
      6 C6         53.0295   45.9518   32.6719 C.2         1 MOL       0.1941
      7 N7         52.6519   45.0651   31.7389 N.2         1 MOL      -0.3175
      8 C8         53.7837   44.4873   31.3102 C.2         1 MOL       0.0787
      9 C9         54.8562   45.0404   31.9987 C.2         1 MOL       0.0743
     10 C10        53.8780   43.4681   30.4005 C.2         1 MOL       0.1958
     11 O11        53.8466   42.3602   30.9193 O.2         1 MOL      -0.3941
     12 N12        54.0992   43.6393   29.0856 N.am        1 MOL      -0.2710
     13 C13        51.8425   48.5079   34.9287 C.3         1 MOL      -0.0096
     14 C14        56.3346   46.5413   34.0248 C.ar        1 MOL       0.0400
     15 C15        54.7613   48.4829   35.5512 C.3         1 MOL       0.0036
     16 N16        54.6763   47.8201   36.8568 N.4         1 MOL       0.2296
     17 C17        57.2655   47.4897   33.5351 C.ar        1 MOL      -0.0470
     18 C18        58.6460   47.3183   33.7356 C.ar        1 MOL      -0.0451
     19 C19        59.1268   46.1689   34.3874 C.ar        1 MOL       0.0429
     20 C20        58.2182   45.2002   34.8530 C.ar        1 MOL      -0.0313
     21 C21        56.8291   45.3849   34.6900 C.ar        1 MOL       0.0551
     22 CL22       55.8068   44.1847   35.3219 Cl          1 MOL      -0.0670
     23 CL23       60.7923   45.9556   34.6022 Cl          1 MOL      -0.0685
     24 C24        54.4200   42.5231   28.2133 C.3         1 MOL       0.0564
     25 C25        53.4267   42.4839   27.0234 C.3         1 MOL       0.0680
     26 O26        53.3853   43.7600   26.3498 O.3         1 MOL      -0.3758
     27 C27        53.0520   44.8563   27.2258 C.3         1 MOL       0.0680
     28 C28        54.0438   44.9288   28.4154 C.3         1 MOL       0.0564
     29 H1         55.8392   44.7849   31.8802 H           1 MOL       0.0902
     30 H2         50.8112   48.3057   34.6243 H           1 MOL       0.0451
     31 H3         52.0609   49.5455   34.6724 H           1 MOL       0.0451
     32 H4         51.8977   48.3840   36.0110 H           1 MOL       0.0451
     33 H5         54.2477   49.4418   35.6056 H           1 MOL       0.0958
     34 H6         55.8047   48.7387   35.3771 H           1 MOL       0.0958
     35 H7         54.9713   48.4772   37.5806 H           1 MOL       0.2006
     36 H8         55.2873   46.9998   36.8739 H           1 MOL       0.2006
     37 H9         53.7136   47.5278   37.0366 H           1 MOL       0.2006
     38 H10        56.9437   48.3278   33.0437 H           1 MOL       0.0642
     39 H11        59.2983   48.0330   33.4039 H           1 MOL       0.0629
     40 H12        58.5723   44.3601   35.3205 H           1 MOL       0.0634
     41 H13        54.4077   41.5496   28.7097 H           1 MOL       0.0544
     42 H14        55.4336   42.6666   27.8284 H           1 MOL       0.0544
     43 H15        52.4278   42.2147   27.3820 H           1 MOL       0.0580
     44 H16        53.7448   41.7248   26.3052 H           1 MOL       0.0580
     45 H17        52.0278   44.7409   27.5938 H           1 MOL       0.0580
     46 H18        53.1033   45.7848   26.6545 H           1 MOL       0.0580
     47 H19        55.0407   45.1674   28.0365 H           1 MOL       0.0544
     48 H20        53.7353   45.7549   29.0584 H           1 MOL       0.0544
@<TRIPOS>BOND
     1     1     2   2
     2     1     5   1
     3     1    14   1
     4     2     3   1
     5     2    15   1
     6     3     4   2
     7     3    13   1
     8     4     6   1
     9     5     6   1
    10     5     9   1
    11     6     7   2
    12     7     8   1
    13     8     9   2
    14     8    10   1
    15    10    11   2
    16    10    12  am
    17    12    24   1
    18    12    28   1
    19    14    17  ar
    20    14    21  ar
    21    15    16   1
    22    17    18  ar
    23    18    19  ar
    24    19    20  ar
    25    19    23   1
    26    20    21  ar
    27    21    22   1
    28    24    25   1
    29    25    26   1
    30    26    27   1
    31    27    28   1
    32     9    29   1
    33    13    30   1
    34    13    31   1
    35    13    32   1
    36    15    33   1
    37    15    34   1
    38    16    35   1
    39    16    36   1
    40    16    37   1
    41    17    38   1
    42    18    39   1
    43    20    40   1
    44    24    41   1
    45    24    42   1
    46    25    43   1
    47    25    44   1
    48    27    45   1
    49    27    46   1
    50    28    47   1
    51    28    48   1
@<TRIPOS>SUBSTRUCTURE
     1  MOL      1

