@<TRIPOS>MOLECULE
3nox_ligand_076
    48    51
SMALL
GAST_HUCK
****
This file was generated by PARSER (from files_GN.cpp)

@<TRIPOS>ATOM
      1 C1         49.7379   49.0872   34.4354 C.2         1 MOL       0.1404
      2 C2         48.7369   48.9134   33.5110 C.2         1 MOL       0.0782
      3 C3         48.9643   48.0174   32.4487 C.2         1 MOL       0.0387
      4 N4         50.1177   47.3702   32.3481 N.2         1 MOL      -0.2660
      5 N5         50.9170   48.4136   34.2727 N.pl3       1 MOL      -0.1859
      6 C6         51.0991   47.5585   33.2474 C.2         1 MOL       0.1941
      7 N7         52.3184   47.0007   33.2656 N.2         1 MOL      -0.3175
      8 C8         52.9535   47.5259   34.3226 C.2         1 MOL       0.0787
      9 C9         52.0718   48.3886   34.9694 C.2         1 MOL       0.0743
     10 C10        54.2542   47.2505   34.6983 C.2         1 MOL       0.1958
     11 O11        54.4346   46.0931   35.0546 O.2         1 MOL      -0.3941
     12 N12        55.2610   48.1436   34.7080 N.am        1 MOL      -0.2710
     13 C13        48.0290   47.7486   31.3606 C.3         1 MOL      -0.0096
     14 C14        49.6111   49.9008   35.5780 C.ar        1 MOL       0.0400
     15 C15        47.4918   49.7066   33.5615 C.3         1 MOL       0.0036
     16 N16        47.7260   51.0799   33.0970 N.4         1 MOL       0.2296
     17 C17        48.7210   49.5150   36.6127 C.ar        1 MOL      -0.0470
     18 C18        48.5958   50.2660   37.7962 C.ar        1 MOL      -0.0451
     19 C19        49.4032   51.3993   37.9935 C.ar        1 MOL       0.0429
     20 C20        50.3083   51.7911   36.9874 C.ar        1 MOL      -0.0313
     21 C21        50.4025   51.0651   35.7776 C.ar        1 MOL       0.0551
     22 CL22       51.4716   51.6325   34.5826 Cl          1 MOL      -0.0670
     23 CL23       49.3038   52.2700   39.4414 Cl          1 MOL      -0.0685
     24 C24        55.2122   49.4101   33.9924 C.3         1 MOL       0.0564
     25 C25        56.3847   49.4659   32.9761 C.3         1 MOL       0.0680
     26 O26        57.6469   49.2119   33.6275 O.3         1 MOL      -0.3758
     27 C27        57.6869   47.9591   34.3420 C.3         1 MOL       0.0680
     28 C28        56.5314   47.8793   35.3709 C.3         1 MOL       0.0564
     29 H1         52.2743   48.8986   35.8271 H           1 MOL       0.0902
     30 H2         48.4462   47.0756   30.6048 H           1 MOL       0.0451
     31 H3         47.7673   48.6811   30.8550 H           1 MOL       0.0451
     32 H4         47.1210   47.2828   31.7509 H           1 MOL       0.0451
     33 H5         47.0809   49.7297   34.5685 H           1 MOL       0.0958
     34 H6         46.6877   49.2975   32.9506 H           1 MOL       0.0958
     35 H7         46.8506   51.6081   33.1456 H           1 MOL       0.2006
     36 H8         48.0477   51.0538   32.1245 H           1 MOL       0.2006
     37 H9         48.4340   51.5367   33.6810 H           1 MOL       0.2006
     38 H10        48.1457   48.6731   36.5165 H           1 MOL       0.0642
     39 H11        47.9247   49.9779   38.5137 H           1 MOL       0.0629
     40 H12        50.8935   52.6184   37.1325 H           1 MOL       0.0634
     41 H13        55.3144   50.2328   34.7058 H           1 MOL       0.0544
     42 H14        54.2849   49.5748   33.4396 H           1 MOL       0.0544
     43 H15        56.4300   50.4583   32.5211 H           1 MOL       0.0580
     44 H16        56.2247   48.7364   32.1772 H           1 MOL       0.0580
     45 H17        58.6442   47.8895   34.8630 H           1 MOL       0.0580
     46 H18        57.6207   47.1216   33.6406 H           1 MOL       0.0580
     47 H19        56.5794   46.9094   35.8749 H           1 MOL       0.0544
     48 H20        56.6892   48.6417   36.1392 H           1 MOL       0.0544
@<TRIPOS>BOND
     1     1     2   2
     2     1     5   1
     3     1    14   1
     4     2     3   1
     5     2    15   1
     6     3     4   2
     7     3    13   1
     8     4     6   1
     9     5     6   1
    10     5     9   1
    11     6     7   2
    12     7     8   1
    13     8     9   2
    14     8    10   1
    15    10    11   2
    16    10    12  am
    17    12    24   1
    18    12    28   1
    19    14    17  ar
    20    14    21  ar
    21    15    16   1
    22    17    18  ar
    23    18    19  ar
    24    19    20  ar
    25    19    23   1
    26    20    21  ar
    27    21    22   1
    28    24    25   1
    29    25    26   1
    30    26    27   1
    31    27    28   1
    32     9    29   1
    33    13    30   1
    34    13    31   1
    35    13    32   1
    36    15    33   1
    37    15    34   1
    38    16    35   1
    39    16    36   1
    40    16    37   1
    41    17    38   1
    42    18    39   1
    43    20    40   1
    44    24    41   1
    45    24    42   1
    46    25    43   1
    47    25    44   1
    48    27    45   1
    49    27    46   1
    50    28    47   1
    51    28    48   1
@<TRIPOS>SUBSTRUCTURE
     1  MOL      1

