@<TRIPOS>MOLECULE
3nox_ligand_056
    48    51
SMALL
GAST_HUCK
****
This file was generated by PARSER (from files_GN.cpp)

@<TRIPOS>ATOM
      1 C1         46.2867   49.3891   32.2660 C.2         1 MOL       0.1404
      2 C2         46.3717   50.6070   32.8890 C.2         1 MOL       0.0782
      3 C3         46.2291   51.7584   32.0913 C.2         1 MOL       0.0387
      4 N4         46.0417   51.6510   30.7817 N.2         1 MOL      -0.2660
      5 N5         46.1000   49.3297   30.9168 N.pl3       1 MOL      -0.1859
      6 C6         45.9757   50.4478   30.1801 C.2         1 MOL       0.1941
      7 N7         45.8392   50.1801   28.8765 N.2         1 MOL      -0.3175
      8 C8         45.8873   48.8419   28.7511 C.2         1 MOL       0.0787
      9 C9         46.0140   48.3102   30.0383 C.2         1 MOL       0.0743
     10 C10        45.8282   48.1825   27.5316 C.2         1 MOL       0.1958
     11 O11        44.9555   48.6179   26.7928 O.2         1 MOL      -0.3941
     12 N12        46.6708   47.2221   27.0908 N.am        1 MOL      -0.2710
     13 C13        46.3359   53.1334   32.5625 C.3         1 MOL      -0.0096
     14 C14        46.4371   48.1718   32.9286 C.ar        1 MOL       0.0400
     15 C15        46.6023   50.7422   34.3486 C.3         1 MOL       0.0036
     16 N16        47.8186   51.5081   34.6659 N.4         1 MOL       0.2296
     17 C17        45.3432   47.6572   33.6654 C.ar        1 MOL      -0.0470
     18 C18        45.4546   46.4416   34.3609 C.ar        1 MOL      -0.0451
     19 C19        46.6591   45.7086   34.3094 C.ar        1 MOL       0.0429
     20 C20        47.7410   46.1963   33.5541 C.ar        1 MOL      -0.0313
     21 C21        47.6406   47.4196   32.8609 C.ar        1 MOL       0.0551
     22 CL22       48.9961   47.9408   31.9847 Cl          1 MOL      -0.0670
     23 CL23       46.7970   44.2534   35.1644 Cl          1 MOL      -0.0685
     24 C24        47.9072   46.8426   27.7618 C.3         1 MOL       0.0564
     25 C25        49.1157   47.1281   26.8312 C.3         1 MOL       0.0680
     26 O26        48.9349   46.5244   25.5310 O.3         1 MOL      -0.3758
     27 C27        47.7033   46.9154   24.8877 C.3         1 MOL       0.0680
     28 C28        46.4898   46.5847   25.7924 C.3         1 MOL       0.0564
     29 H1         46.0486   47.3114   30.2638 H           1 MOL       0.0902
     30 H2         46.0318   53.8568   31.7988 H           1 MOL       0.0451
     31 H3         47.3756   53.3452   32.8157 H           1 MOL       0.0451
     32 H4         45.7013   53.2999   33.4351 H           1 MOL       0.0451
     33 H5         46.7106   49.7863   34.8622 H           1 MOL       0.0958
     34 H6         45.7509   51.2340   34.8215 H           1 MOL       0.0958
     35 H7         48.1269   51.2743   35.6158 H           1 MOL       0.2006
     36 H8         47.6130   52.5103   34.6201 H           1 MOL       0.2006
     37 H9         48.5678   51.2764   34.0051 H           1 MOL       0.2006
     38 H10        44.4533   48.1685   33.7089 H           1 MOL       0.0642
     39 H11        44.6549   46.0855   34.8923 H           1 MOL       0.0629
     40 H12        48.6047   45.6539   33.5084 H           1 MOL       0.0634
     41 H13        47.8729   45.7729   27.9927 H           1 MOL       0.0544
     42 H14        48.1008   47.3670   28.6967 H           1 MOL       0.0544
     43 H15        50.0250   46.7160   27.2765 H           1 MOL       0.0580
     44 H16        49.2506   48.2097   26.7226 H           1 MOL       0.0580
     45 H17        47.6193   46.3688   23.9470 H           1 MOL       0.0580
     46 H18        47.7207   47.9866   24.6610 H           1 MOL       0.0580
     47 H19        45.5793   46.8815   25.2664 H           1 MOL       0.0544
     48 H20        46.4305   45.5022   25.9329 H           1 MOL       0.0544
@<TRIPOS>BOND
     1     1     2   2
     2     1     5   1
     3     1    14   1
     4     2     3   1
     5     2    15   1
     6     3     4   2
     7     3    13   1
     8     4     6   1
     9     5     6   1
    10     5     9   1
    11     6     7   2
    12     7     8   1
    13     8     9   2
    14     8    10   1
    15    10    11   2
    16    10    12  am
    17    12    24   1
    18    12    28   1
    19    14    17  ar
    20    14    21  ar
    21    15    16   1
    22    17    18  ar
    23    18    19  ar
    24    19    20  ar
    25    19    23   1
    26    20    21  ar
    27    21    22   1
    28    24    25   1
    29    25    26   1
    30    26    27   1
    31    27    28   1
    32     9    29   1
    33    13    30   1
    34    13    31   1
    35    13    32   1
    36    15    33   1
    37    15    34   1
    38    16    35   1
    39    16    36   1
    40    16    37   1
    41    17    38   1
    42    18    39   1
    43    20    40   1
    44    24    41   1
    45    24    42   1
    46    25    43   1
    47    25    44   1
    48    27    45   1
    49    27    46   1
    50    28    47   1
    51    28    48   1
@<TRIPOS>SUBSTRUCTURE
     1  MOL      1

