@<TRIPOS>MOLECULE
3nox_ligand_038
    48    51
SMALL
GAST_HUCK
****
This file was generated by PARSER (from files_GN.cpp)

@<TRIPOS>ATOM
      1 C1         47.7407   49.5672   33.6451 C.2         1 MOL       0.1404
      2 C2         46.6134   50.2776   33.9836 C.2         1 MOL       0.0782
      3 C3         46.6969   51.1417   35.0916 C.2         1 MOL       0.0387
      4 N4         47.8216   51.2418   35.7909 N.2         1 MOL      -0.2660
      5 N5         48.8652   49.6918   34.4031 N.pl3       1 MOL      -0.1859
      6 C6         48.9064   50.5266   35.4578 C.2         1 MOL       0.1941
      7 N7         50.1065   50.5227   36.0523 N.2         1 MOL      -0.3175
      8 C8         50.8556   49.6486   35.3668 C.2         1 MOL       0.0787
      9 C9         50.0860   49.1260   34.3299 C.2         1 MOL       0.0743
     10 C10        52.1736   49.3723   35.6455 C.2         1 MOL       0.1958
     11 O11        52.3175   48.4119   36.3909 O.2         1 MOL      -0.3941
     12 N12        53.2181   50.0967   35.2004 N.am        1 MOL      -0.2710
     13 C13        45.6163   51.9850   35.5779 C.3         1 MOL      -0.0096
     14 C14        47.8177   48.7562   32.5138 C.ar        1 MOL       0.0400
     15 C15        45.3665   50.2245   33.1858 C.3         1 MOL       0.0036
     16 N16        44.2067   49.6844   33.9163 N.4         1 MOL       0.2296
     17 C17        48.4102   49.2864   31.3419 C.ar        1 MOL      -0.0470
     18 C18        48.4886   48.5194   30.1685 C.ar        1 MOL      -0.0451
     19 C19        47.9787   47.2077   30.1474 C.ar        1 MOL       0.0429
     20 C20        47.4060   46.6637   31.3136 C.ar        1 MOL      -0.0313
     21 C21        47.3250   47.4249   32.4967 C.ar        1 MOL       0.0551
     22 CL22       46.6414   46.6910   33.8676 Cl          1 MOL      -0.0670
     23 CL23       48.0555   46.2868   28.7294 Cl          1 MOL      -0.0685
     24 C24        53.0834   51.2356   34.3032 C.3         1 MOL       0.0564
     25 C25        53.7304   52.4845   34.9515 C.3         1 MOL       0.0680
     26 O26        55.0868   52.2072   35.3541 O.3         1 MOL      -0.3758
     27 C27        55.2107   51.0742   36.2394 C.3         1 MOL       0.0680
     28 C28        54.5840   49.8059   35.6042 C.3         1 MOL       0.0564
     29 H1         50.4090   48.4532   33.6323 H           1 MOL       0.0902
     30 H2         45.9427   52.6672   36.3680 H           1 MOL       0.0451
     31 H3         44.8367   51.3554   35.9977 H           1 MOL       0.0451
     32 H4         45.2106   52.5971   34.7715 H           1 MOL       0.0451
     33 H5         45.4652   49.6192   32.2834 H           1 MOL       0.0958
     34 H6         45.1040   51.2234   32.8321 H           1 MOL       0.0958
     35 H7         43.4529   49.4984   33.2496 H           1 MOL       0.2006
     36 H8         43.8692   50.3680   34.5951 H           1 MOL       0.2006
     37 H9         44.4552   48.8144   34.3913 H           1 MOL       0.2006
     38 H10        48.7812   50.2405   31.3334 H           1 MOL       0.0642
     39 H11        48.9162   48.9190   29.3287 H           1 MOL       0.0629
     40 H12        47.0502   45.7030   31.2975 H           1 MOL       0.0634
     41 H13        52.0530   51.4817   34.0413 H           1 MOL       0.0544
     42 H14        53.6021   51.0112   33.3678 H           1 MOL       0.0544
     43 H15        53.1409   52.8096   35.8127 H           1 MOL       0.0580
     44 H16        53.7481   53.3006   34.2281 H           1 MOL       0.0580
     45 H17        54.7259   51.2922   37.1955 H           1 MOL       0.0580
     46 H18        56.2724   50.8999   36.4283 H           1 MOL       0.0580
     47 H19        55.1667   49.5247   34.7207 H           1 MOL       0.0544
     48 H20        54.6756   48.9849   36.3219 H           1 MOL       0.0544
@<TRIPOS>BOND
     1     1     2   2
     2     1     5   1
     3     1    14   1
     4     2     3   1
     5     2    15   1
     6     3     4   2
     7     3    13   1
     8     4     6   1
     9     5     6   1
    10     5     9   1
    11     6     7   2
    12     7     8   1
    13     8     9   2
    14     8    10   1
    15    10    11   2
    16    10    12  am
    17    12    24   1
    18    12    28   1
    19    14    17  ar
    20    14    21  ar
    21    15    16   1
    22    17    18  ar
    23    18    19  ar
    24    19    20  ar
    25    19    23   1
    26    20    21  ar
    27    21    22   1
    28    24    25   1
    29    25    26   1
    30    26    27   1
    31    27    28   1
    32     9    29   1
    33    13    30   1
    34    13    31   1
    35    13    32   1
    36    15    33   1
    37    15    34   1
    38    16    35   1
    39    16    36   1
    40    16    37   1
    41    17    38   1
    42    18    39   1
    43    20    40   1
    44    24    41   1
    45    24    42   1
    46    25    43   1
    47    25    44   1
    48    27    45   1
    49    27    46   1
    50    28    47   1
    51    28    48   1
@<TRIPOS>SUBSTRUCTURE
     1  MOL      1

