@<TRIPOS>MOLECULE
3nox_ligand_015
    48    51
SMALL
GAST_HUCK
****
This file was generated by PARSER (from files_GN.cpp)

@<TRIPOS>ATOM
      1 C1         55.1744   50.8604   34.4684 C.2         1 MOL       0.1404
      2 C2         55.6666   51.9775   33.8429 C.2         1 MOL       0.0782
      3 C3         54.7944   53.0747   33.6800 C.2         1 MOL       0.0387
      4 N4         53.5466   53.0125   34.1225 N.2         1 MOL      -0.2660
      5 N5         53.8864   50.8479   34.9111 N.pl3       1 MOL      -0.1859
      6 C6         53.0910   51.9162   34.7510 C.2         1 MOL       0.1941
      7 N7         51.8688   51.6977   35.2405 N.2         1 MOL      -0.3175
      8 C8         51.8283   50.4362   35.7015 C.2         1 MOL       0.0787
      9 C9         53.1235   49.9230   35.5275 C.2         1 MOL       0.0743
     10 C10        50.7348   49.7732   36.2690 C.2         1 MOL       0.1958
     11 O11        51.0314   48.7481   36.8732 O.2         1 MOL      -0.3941
     12 N12        49.4368   50.1571   36.2453 N.am        1 MOL      -0.2710
     13 C13        55.1351   54.3209   33.0036 C.3         1 MOL      -0.0096
     14 C14        55.9286   49.6933   34.6616 C.ar        1 MOL       0.0400
     15 C15        57.0606   52.0644   33.3552 C.3         1 MOL       0.0036
     16 N16        57.9153   52.7763   34.3159 N.4         1 MOL       0.2296
     17 C17        56.9436   49.6796   35.6472 C.ar        1 MOL      -0.0470
     18 C18        57.7352   48.5349   35.8464 C.ar        1 MOL      -0.0451
     19 C19        57.4997   47.3747   35.0859 C.ar        1 MOL       0.0429
     20 C20        56.4796   47.3690   34.1159 C.ar        1 MOL      -0.0313
     21 C21        55.7004   48.5215   33.8918 C.ar        1 MOL       0.0551
     22 CL22       54.5178   48.4375   32.6730 Cl          1 MOL      -0.0670
     23 CL23       58.4379   45.9878   35.3421 Cl          1 MOL      -0.0685
     24 C24        48.8812   51.1529   35.3396 C.3         1 MOL       0.0564
     25 C25        47.6372   50.5982   34.5966 C.3         1 MOL       0.0680
     26 O26        46.6891   50.0203   35.5120 O.3         1 MOL      -0.3758
     27 C27        47.2608   49.0002   36.3503 C.3         1 MOL       0.0680
     28 C28        48.4520   49.5779   37.1512 C.3         1 MOL       0.0564
     29 H1         53.4248   48.9803   35.7868 H           1 MOL       0.0902
     30 H2         54.3082   55.0357   33.0164 H           1 MOL       0.0451
     31 H3         55.3837   54.1310   31.9589 H           1 MOL       0.0451
     32 H4         55.9841   54.7939   33.4953 H           1 MOL       0.0451
     33 H5         57.1175   52.5738   32.3947 H           1 MOL       0.0958
     34 H6         57.5129   51.0883   33.1848 H           1 MOL       0.0958
     35 H7         58.8676   52.8311   33.9499 H           1 MOL       0.2006
     36 H8         57.9308   52.2744   35.2060 H           1 MOL       0.2006
     37 H9         57.5628   53.7233   34.4734 H           1 MOL       0.2006
     38 H10        57.1167   50.5025   36.2306 H           1 MOL       0.0642
     39 H11        58.4802   48.5487   36.5428 H           1 MOL       0.0629
     40 H12        56.3135   46.5237   33.5667 H           1 MOL       0.0634
     41 H13        49.5579   51.4775   34.5546 H           1 MOL       0.0544
     42 H14        48.5936   52.0371   35.9137 H           1 MOL       0.0544
     43 H15        47.9453   49.8478   33.8640 H           1 MOL       0.0580
     44 H16        47.1428   51.4089   34.0586 H           1 MOL       0.0580
     45 H17        47.5881   48.1499   35.7465 H           1 MOL       0.0580
     46 H18        46.4928   48.6471   37.0416 H           1 MOL       0.0580
     47 H19        48.0812   50.3685   37.8110 H           1 MOL       0.0544
     48 H20        48.8394   48.7906   37.8005 H           1 MOL       0.0544
@<TRIPOS>BOND
     1     1     2   2
     2     1     5   1
     3     1    14   1
     4     2     3   1
     5     2    15   1
     6     3     4   2
     7     3    13   1
     8     4     6   1
     9     5     6   1
    10     5     9   1
    11     6     7   2
    12     7     8   1
    13     8     9   2
    14     8    10   1
    15    10    11   2
    16    10    12  am
    17    12    24   1
    18    12    28   1
    19    14    17  ar
    20    14    21  ar
    21    15    16   1
    22    17    18  ar
    23    18    19  ar
    24    19    20  ar
    25    19    23   1
    26    20    21  ar
    27    21    22   1
    28    24    25   1
    29    25    26   1
    30    26    27   1
    31    27    28   1
    32     9    29   1
    33    13    30   1
    34    13    31   1
    35    13    32   1
    36    15    33   1
    37    15    34   1
    38    16    35   1
    39    16    36   1
    40    16    37   1
    41    17    38   1
    42    18    39   1
    43    20    40   1
    44    24    41   1
    45    24    42   1
    46    25    43   1
    47    25    44   1
    48    27    45   1
    49    27    46   1
    50    28    47   1
    51    28    48   1
@<TRIPOS>SUBSTRUCTURE
     1  MOL      1

