@<TRIPOS>MOLECULE
3nox_ligand_024
    48    51
SMALL
GAST_HUCK
****
This file was generated by PARSER (from files_GN.cpp)

@<TRIPOS>ATOM
      1 C1         55.9163   51.5913   33.5813 C.2         1 MOL       0.1404
      2 C2         55.7943   52.8124   34.1983 C.2         1 MOL       0.0782
      3 C3         54.4931   53.2960   34.4447 C.2         1 MOL       0.0387
      4 N4         53.4346   52.6081   34.0348 N.2         1 MOL      -0.2660
      5 N5         54.7976   50.9072   33.2068 N.pl3       1 MOL      -0.1859
      6 C6         53.5720   51.4226   33.4134 C.2         1 MOL       0.1941
      7 N7         52.6092   50.6071   32.9634 N.2         1 MOL      -0.3175
      8 C8         53.2218   49.5103   32.4793 C.2         1 MOL       0.0787
      9 C9         54.5993   49.7137   32.6090 C.2         1 MOL       0.0743
     10 C10        52.5607   48.4229   31.9264 C.2         1 MOL       0.1958
     11 O11        51.7959   48.7287   31.0149 O.2         1 MOL      -0.3941
     12 N12        52.6248   47.1391   32.3480 N.am        1 MOL      -0.2710
     13 C13        54.1897   54.5119   35.1936 C.3         1 MOL      -0.0096
     14 C14        57.1514   51.0112   33.2711 C.ar        1 MOL       0.0400
     15 C15        56.9819   53.5879   34.6201 C.3         1 MOL       0.0036
     16 N16        57.4250   53.2044   35.9673 N.4         1 MOL       0.2296
     17 C17        57.7552   51.3189   32.0266 C.ar        1 MOL      -0.0470
     18 C18        59.0081   50.7771   31.6811 C.ar        1 MOL      -0.0451
     19 C19        59.6704   49.9110   32.5681 C.ar        1 MOL       0.0429
     20 C20        59.0638   49.5674   33.7924 C.ar        1 MOL      -0.0313
     21 C21        57.8078   50.1074   34.1469 C.ar        1 MOL       0.0551
     22 CL22       57.1371   49.6280   35.6314 Cl          1 MOL      -0.0670
     23 CL23       61.1927   49.2911   32.1636 Cl          1 MOL      -0.0685
     24 C24        53.2282   46.7406   33.6096 C.3         1 MOL       0.0564
     25 C25        54.1015   45.4720   33.4251 C.3         1 MOL       0.0680
     26 O26        53.3234   44.4175   32.8274 O.3         1 MOL      -0.3758
     27 C27        52.7727   44.7860   31.5459 C.3         1 MOL       0.0680
     28 C28        51.9075   46.0693   31.6561 C.3         1 MOL       0.0564
     29 H1         55.3265   49.0651   32.3044 H           1 MOL       0.0902
     30 H2         53.1159   54.6637   35.3228 H           1 MOL       0.0451
     31 H3         54.5798   55.3875   34.6745 H           1 MOL       0.0451
     32 H4         54.6380   54.4531   36.1872 H           1 MOL       0.0451
     33 H5         56.8099   54.6626   34.6276 H           1 MOL       0.0958
     34 H6         57.8123   53.4412   33.9265 H           1 MOL       0.0958
     35 H7         58.2649   53.7397   36.1969 H           1 MOL       0.2006
     36 H8         57.6421   52.2050   35.9944 H           1 MOL       0.2006
     37 H9         56.6965   53.4236   36.6543 H           1 MOL       0.2006
     38 H10        57.2924   51.9470   31.3654 H           1 MOL       0.0642
     39 H11        59.4345   51.0261   30.7853 H           1 MOL       0.0629
     40 H12        59.5434   48.9247   34.4266 H           1 MOL       0.0634
     41 H13        52.4152   46.5104   34.3042 H           1 MOL       0.0544
     42 H14        53.8373   47.5087   34.0899 H           1 MOL       0.0544
     43 H15        54.4566   45.1295   34.3989 H           1 MOL       0.0580
     44 H16        54.9770   45.7064   32.8067 H           1 MOL       0.0580
     45 H17        52.1519   43.9587   31.1936 H           1 MOL       0.0580
     46 H18        53.5776   44.9381   30.8221 H           1 MOL       0.0580
     47 H19        51.5990   46.3395   30.6398 H           1 MOL       0.0544
     48 H20        51.0020   45.8362   32.2274 H           1 MOL       0.0544
@<TRIPOS>BOND
     1     1     2   2
     2     1     5   1
     3     1    14   1
     4     2     3   1
     5     2    15   1
     6     3     4   2
     7     3    13   1
     8     4     6   1
     9     5     6   1
    10     5     9   1
    11     6     7   2
    12     7     8   1
    13     8     9   2
    14     8    10   1
    15    10    11   2
    16    10    12  am
    17    12    24   1
    18    12    28   1
    19    14    17  ar
    20    14    21  ar
    21    15    16   1
    22    17    18  ar
    23    18    19  ar
    24    19    20  ar
    25    19    23   1
    26    20    21  ar
    27    21    22   1
    28    24    25   1
    29    25    26   1
    30    26    27   1
    31    27    28   1
    32     9    29   1
    33    13    30   1
    34    13    31   1
    35    13    32   1
    36    15    33   1
    37    15    34   1
    38    16    35   1
    39    16    36   1
    40    16    37   1
    41    17    38   1
    42    18    39   1
    43    20    40   1
    44    24    41   1
    45    24    42   1
    46    25    43   1
    47    25    44   1
    48    27    45   1
    49    27    46   1
    50    28    47   1
    51    28    48   1
@<TRIPOS>SUBSTRUCTURE
     1  MOL      1

