@<TRIPOS>MOLECULE
3nox_ligand_065
    48    51
SMALL
GAST_HUCK
****
This file was generated by PARSER (from files_GN.cpp)

@<TRIPOS>ATOM
      1 C1         55.6948   51.7104   34.4999 C.2         1 MOL       0.1404
      2 C2         56.7545   50.8535   34.3617 C.2         1 MOL       0.0782
      3 C3         58.0207   51.4146   34.1144 C.2         1 MOL       0.0387
      4 N4         58.1652   52.7300   33.9907 N.2         1 MOL      -0.2660
      5 N5         55.8849   53.0493   34.3559 N.pl3       1 MOL      -0.1859
      6 C6         57.1035   53.5529   34.1010 C.2         1 MOL       0.1941
      7 N7         57.0611   54.8836   33.9589 N.2         1 MOL      -0.3175
      8 C8         55.7776   55.2548   34.1093 C.2         1 MOL       0.0787
      9 C9         55.0424   54.1050   34.3997 C.2         1 MOL       0.0743
     10 C10        55.3603   56.5703   33.9761 C.2         1 MOL       0.1958
     11 O11        56.1956   57.3756   34.3752 O.2         1 MOL      -0.3941
     12 N12        54.2454   57.0163   33.3613 N.am        1 MOL      -0.2710
     13 C13        59.2529   50.6485   33.9819 C.3         1 MOL      -0.0096
     14 C14        54.3932   51.2775   34.7572 C.ar        1 MOL       0.0400
     15 C15        56.5949   49.3971   34.5306 C.3         1 MOL       0.0036
     16 N16        56.7703   49.0137   35.9353 N.4         1 MOL       0.2296
     17 C17        53.9116   51.3354   36.0839 C.ar        1 MOL      -0.0470
     18 C18        52.6005   50.9263   36.3818 C.ar        1 MOL      -0.0451
     19 C19        51.7575   50.4603   35.3584 C.ar        1 MOL       0.0429
     20 C20        52.2225   50.4153   34.0317 C.ar        1 MOL      -0.0313
     21 C21        53.5353   50.8276   33.7193 C.ar        1 MOL       0.0551
     22 CL22       54.0272   50.7607   32.0931 Cl          1 MOL      -0.0670
     23 CL23       50.1818   49.9672   35.7222 Cl          1 MOL      -0.0685
     24 C24        53.2871   56.1609   32.6749 C.3         1 MOL       0.0564
     25 C25        53.2274   56.5379   31.1738 C.3         1 MOL       0.0680
     26 O26        52.9932   57.9482   30.9984 O.3         1 MOL      -0.3758
     27 C27        53.9330   58.7881   31.6963 C.3         1 MOL       0.0680
     28 C28        53.9660   58.4416   33.2079 C.3         1 MOL       0.0564
     29 H1         54.0413   54.0702   34.6067 H           1 MOL       0.0902
     30 H2         60.1342   51.2857   33.8567 H           1 MOL       0.0451
     31 H3         59.1932   49.9963   33.1077 H           1 MOL       0.0451
     32 H4         59.4118   50.0414   34.8756 H           1 MOL       0.0451
     33 H5         57.3079   48.8340   33.9312 H           1 MOL       0.0958
     34 H6         55.6129   49.0530   34.2053 H           1 MOL       0.0958
     35 H7         56.6618   48.0026   36.0249 H           1 MOL       0.2006
     36 H8         56.0687   49.4788   36.5123 H           1 MOL       0.2006
     37 H9         57.7023   49.2835   36.2530 H           1 MOL       0.2006
     38 H10        54.5080   51.6802   36.8430 H           1 MOL       0.0642
     39 H11        52.2694   50.9844   37.3453 H           1 MOL       0.0629
     40 H12        51.6076   50.0803   33.2869 H           1 MOL       0.0634
     41 H13        52.2964   56.3009   33.1157 H           1 MOL       0.0544
     42 H14        53.5066   55.0974   32.7189 H           1 MOL       0.0544
     43 H15        52.4114   55.9932   30.6935 H           1 MOL       0.0580
     44 H16        54.1621   56.2531   30.6825 H           1 MOL       0.0580
     45 H17        53.6238   59.8266   31.5663 H           1 MOL       0.0580
     46 H18        54.9314   58.6689   31.2648 H           1 MOL       0.0580
     47 H19        54.6921   59.0958   33.6957 H           1 MOL       0.0544
     48 H20        52.9936   58.6740   33.6517 H           1 MOL       0.0544
@<TRIPOS>BOND
     1     1     2   2
     2     1     5   1
     3     1    14   1
     4     2     3   1
     5     2    15   1
     6     3     4   2
     7     3    13   1
     8     4     6   1
     9     5     6   1
    10     5     9   1
    11     6     7   2
    12     7     8   1
    13     8     9   2
    14     8    10   1
    15    10    11   2
    16    10    12  am
    17    12    24   1
    18    12    28   1
    19    14    17  ar
    20    14    21  ar
    21    15    16   1
    22    17    18  ar
    23    18    19  ar
    24    19    20  ar
    25    19    23   1
    26    20    21  ar
    27    21    22   1
    28    24    25   1
    29    25    26   1
    30    26    27   1
    31    27    28   1
    32     9    29   1
    33    13    30   1
    34    13    31   1
    35    13    32   1
    36    15    33   1
    37    15    34   1
    38    16    35   1
    39    16    36   1
    40    16    37   1
    41    17    38   1
    42    18    39   1
    43    20    40   1
    44    24    41   1
    45    24    42   1
    46    25    43   1
    47    25    44   1
    48    27    45   1
    49    27    46   1
    50    28    47   1
    51    28    48   1
@<TRIPOS>SUBSTRUCTURE
     1  MOL      1

