@<TRIPOS>MOLECULE
3nox_ligand_072
    48    51
SMALL
GAST_HUCK
****
This file was generated by PARSER (from files_GN.cpp)

@<TRIPOS>ATOM
      1 C1         55.5616   53.6263   33.6355 C.2         1 MOL       0.1404
      2 C2         55.6153   54.9787   33.8493 C.2         1 MOL       0.0782
      3 C3         54.5011   55.5927   34.4489 C.2         1 MOL       0.0387
      4 N4         53.4499   54.8679   34.8179 N.2         1 MOL      -0.2660
      5 N5         54.4586   52.9217   34.0226 N.pl3       1 MOL      -0.1859
      6 C6         53.4178   53.5352   34.6213 C.2         1 MOL       0.1941
      7 N7         52.4359   52.6711   34.9298 N.2         1 MOL      -0.3175
      8 C8         52.8664   51.4621   34.5335 C.2         1 MOL       0.0787
      9 C9         54.1252   51.6164   33.9515 C.2         1 MOL       0.0743
     10 C10        52.1764   50.2737   34.6557 C.2         1 MOL       0.1958
     11 O11        52.3995   49.6701   35.6980 O.2         1 MOL      -0.3941
     12 N12        51.3651   49.7639   33.7093 N.am        1 MOL      -0.2710
     13 C13        54.3817   57.0221   34.7097 C.3         1 MOL      -0.0096
     14 C14        56.6275   52.9114   33.0797 C.ar        1 MOL       0.0400
     15 C15        56.7820   55.7797   33.4186 C.3         1 MOL       0.0036
     16 N16        56.7008   56.1095   31.9907 N.4         1 MOL       0.2296
     17 C17        56.5981   52.6025   31.7002 C.ar        1 MOL      -0.0470
     18 C18        57.6682   51.9179   31.0980 C.ar        1 MOL      -0.0451
     19 C19        58.7775   51.5239   31.8680 C.ar        1 MOL       0.0429
     20 C20        58.8090   51.8108   33.2458 C.ar        1 MOL      -0.0313
     21 C21        57.7381   52.4920   33.8599 C.ar        1 MOL       0.0551
     22 CL22       57.8553   52.8084   35.5253 Cl          1 MOL      -0.0670
     23 CL23       60.0692   50.7085   31.1395 Cl          1 MOL      -0.0685
     24 C24        50.8485   50.5439   32.5949 C.3         1 MOL       0.0564
     25 C25        49.2983   50.4777   32.5995 C.3         1 MOL       0.0680
     26 O26        48.8382   49.1107   32.6226 O.3         1 MOL      -0.3758
     27 C27        49.3541   48.3469   33.7316 C.3         1 MOL       0.0680
     28 C28        50.9023   48.3838   33.7452 C.3         1 MOL       0.0564
     29 H1         54.6967   50.8661   33.5548 H           1 MOL       0.0902
     30 H2         53.4154   57.2893   35.1471 H           1 MOL       0.0451
     31 H3         54.4901   57.5815   33.7788 H           1 MOL       0.0451
     32 H4         55.1539   57.3427   35.4105 H           1 MOL       0.0451
     33 H5         57.7217   55.2553   33.5958 H           1 MOL       0.0958
     34 H6         56.8797   56.7165   33.9640 H           1 MOL       0.0958
     35 H7         57.5229   56.6562   31.7234 H           1 MOL       0.2006
     36 H8         55.8587   56.6608   31.8117 H           1 MOL       0.2006
     37 H9         56.6722   55.2539   31.4335 H           1 MOL       0.2006
     38 H10        55.8081   52.8961   31.1171 H           1 MOL       0.0642
     39 H11        57.6386   51.7187   30.0958 H           1 MOL       0.0629
     40 H12        59.6210   51.5284   33.8015 H           1 MOL       0.0634
     41 H13        51.2278   50.1328   31.6547 H           1 MOL       0.0544
     42 H14        51.1323   51.5967   32.6240 H           1 MOL       0.0544
     43 H15        48.9114   50.9550   31.6975 H           1 MOL       0.0580
     44 H16        48.9026   51.0194   33.4644 H           1 MOL       0.0580
     45 H17        49.0133   47.3149   33.6247 H           1 MOL       0.0580
     46 H18        48.9617   48.7371   34.6748 H           1 MOL       0.0580
     47 H19        51.2587   47.8164   34.6084 H           1 MOL       0.0544
     48 H20        51.2705   47.8643   32.8549 H           1 MOL       0.0544
@<TRIPOS>BOND
     1     1     2   2
     2     1     5   1
     3     1    14   1
     4     2     3   1
     5     2    15   1
     6     3     4   2
     7     3    13   1
     8     4     6   1
     9     5     6   1
    10     5     9   1
    11     6     7   2
    12     7     8   1
    13     8     9   2
    14     8    10   1
    15    10    11   2
    16    10    12  am
    17    12    24   1
    18    12    28   1
    19    14    17  ar
    20    14    21  ar
    21    15    16   1
    22    17    18  ar
    23    18    19  ar
    24    19    20  ar
    25    19    23   1
    26    20    21  ar
    27    21    22   1
    28    24    25   1
    29    25    26   1
    30    26    27   1
    31    27    28   1
    32     9    29   1
    33    13    30   1
    34    13    31   1
    35    13    32   1
    36    15    33   1
    37    15    34   1
    38    16    35   1
    39    16    36   1
    40    16    37   1
    41    17    38   1
    42    18    39   1
    43    20    40   1
    44    24    41   1
    45    24    42   1
    46    25    43   1
    47    25    44   1
    48    27    45   1
    49    27    46   1
    50    28    47   1
    51    28    48   1
@<TRIPOS>SUBSTRUCTURE
     1  MOL      1

