@<TRIPOS>MOLECULE
3nox_ligand_039
    48    51
SMALL
GAST_HUCK
****
This file was generated by PARSER (from files_GN.cpp)

@<TRIPOS>ATOM
      1 C1         56.9786   46.7062   34.0718 C.2         1 MOL       0.1404
      2 C2         58.3185   46.4847   34.2458 C.2         1 MOL       0.0782
      3 C3         59.0216   47.3807   35.0755 C.2         1 MOL       0.0387
      4 N4         58.3942   48.3844   35.6828 N.2         1 MOL      -0.2660
      5 N5         56.3789   47.7491   34.7098 N.pl3       1 MOL      -0.1859
      6 C6         57.0750   48.5759   35.5088 C.2         1 MOL       0.1941
      7 N7         56.2834   49.5383   36.0157 N.2         1 MOL      -0.3175
      8 C8         55.0399   49.3355   35.5325 C.2         1 MOL       0.0787
      9 C9         55.1024   48.1908   34.7328 C.2         1 MOL       0.0743
     10 C10        53.9344   50.1149   35.8561 C.2         1 MOL       0.1958
     11 O11        54.0827   50.7646   36.8864 O.2         1 MOL      -0.3941
     12 N12        52.7620   50.2034   35.1924 N.am        1 MOL      -0.2710
     13 C13        60.4648   47.3654   35.2596 C.3         1 MOL      -0.0096
     14 C14        56.1582   45.9037   33.2742 C.ar        1 MOL       0.0400
     15 C15        59.0013   45.3191   33.6556 C.3         1 MOL       0.0036
     16 N16        59.2509   44.2882   34.6737 N.4         1 MOL       0.2296
     17 C17        55.9283   46.2917   31.9340 C.ar        1 MOL      -0.0470
     18 C18        55.0465   45.5554   31.1192 C.ar        1 MOL      -0.0451
     19 C19        54.3796   44.4344   31.6365 C.ar        1 MOL       0.0429
     20 C20        54.5933   44.0460   32.9715 C.ar        1 MOL      -0.0313
     21 C21        55.4774   44.7762   33.7970 C.ar        1 MOL       0.0551
     22 CL22       55.6922   44.2470   35.3968 Cl          1 MOL      -0.0670
     23 CL23       53.3080   43.5586   30.6595 Cl          1 MOL      -0.0685
     24 C24        52.5956   49.7481   33.8217 C.3         1 MOL       0.0564
     25 C25        51.6457   50.6518   32.9804 C.3         1 MOL       0.0680
     26 O26        50.6277   51.3648   33.7191 O.3         1 MOL      -0.3758
     27 C27        50.3145   50.7980   34.9990 C.3         1 MOL       0.0680
     28 C28        51.6004   50.7788   35.8614 C.3         1 MOL       0.0564
     29 H1         54.3176   47.7311   34.2667 H           1 MOL       0.0902
     30 H2         60.7916   48.0917   36.0114 H           1 MOL       0.0451
     31 H3         60.9565   47.6146   34.3161 H           1 MOL       0.0451
     32 H4         60.8088   46.3845   35.5896 H           1 MOL       0.0451
     33 H5         59.9485   45.6075   33.2030 H           1 MOL       0.0958
     34 H6         58.4309   44.8385   32.8620 H           1 MOL       0.0958
     35 H7         59.7518   43.4979   34.2545 H           1 MOL       0.2006
     36 H8         58.3572   43.9558   35.0475 H           1 MOL       0.2006
     37 H9         59.8112   44.6706   35.4392 H           1 MOL       0.2006
     38 H10        56.3931   47.1132   31.5419 H           1 MOL       0.0642
     39 H11        54.8924   45.8511   30.1513 H           1 MOL       0.0629
     40 H12        54.1020   43.2305   33.3430 H           1 MOL       0.0634
     41 H13        52.1697   48.7426   33.8578 H           1 MOL       0.0544
     42 H14        53.5431   49.6975   33.2783 H           1 MOL       0.0544
     43 H15        51.1518   50.0457   32.2122 H           1 MOL       0.0580
     44 H16        52.2414   51.4127   32.4650 H           1 MOL       0.0580
     45 H17        49.9151   49.7852   34.8798 H           1 MOL       0.0580
     46 H18        49.5479   51.4138   35.4761 H           1 MOL       0.0580
     47 H19        51.8256   51.8136   36.1419 H           1 MOL       0.0544
     48 H20        51.3851   50.2159   36.7764 H           1 MOL       0.0544
@<TRIPOS>BOND
     1     1     2   2
     2     1     5   1
     3     1    14   1
     4     2     3   1
     5     2    15   1
     6     3     4   2
     7     3    13   1
     8     4     6   1
     9     5     6   1
    10     5     9   1
    11     6     7   2
    12     7     8   1
    13     8     9   2
    14     8    10   1
    15    10    11   2
    16    10    12  am
    17    12    24   1
    18    12    28   1
    19    14    17  ar
    20    14    21  ar
    21    15    16   1
    22    17    18  ar
    23    18    19  ar
    24    19    20  ar
    25    19    23   1
    26    20    21  ar
    27    21    22   1
    28    24    25   1
    29    25    26   1
    30    26    27   1
    31    27    28   1
    32     9    29   1
    33    13    30   1
    34    13    31   1
    35    13    32   1
    36    15    33   1
    37    15    34   1
    38    16    35   1
    39    16    36   1
    40    16    37   1
    41    17    38   1
    42    18    39   1
    43    20    40   1
    44    24    41   1
    45    24    42   1
    46    25    43   1
    47    25    44   1
    48    27    45   1
    49    27    46   1
    50    28    47   1
    51    28    48   1
@<TRIPOS>SUBSTRUCTURE
     1  MOL      1

