@<TRIPOS>MOLECULE
3nox_ligand_050
    48    51
SMALL
GAST_HUCK
****
This file was generated by PARSER (from files_GN.cpp)

@<TRIPOS>ATOM
      1 C1         54.3291   51.8740   33.9201 C.2         1 MOL       0.1404
      2 C2         55.2301   51.1284   33.2084 C.2         1 MOL       0.0782
      3 C3         56.3961   51.7716   32.7474 C.2         1 MOL       0.0387
      4 N4         56.5770   53.0708   32.9484 N.2         1 MOL      -0.2660
      5 N5         54.5693   53.2030   34.1183 N.pl3       1 MOL      -0.1859
      6 C6         55.6650   53.8019   33.6209 C.2         1 MOL       0.1941
      7 N7         55.6885   55.1075   33.9200 N.2         1 MOL      -0.3175
      8 C8         54.5691   55.3823   34.6248 C.2         1 MOL       0.0787
      9 C9         53.8894   54.1710   34.7632 C.2         1 MOL       0.0743
     10 C10        54.2686   56.6438   35.1442 C.2         1 MOL       0.1958
     11 O11        55.2232   57.4152   35.1600 O.2         1 MOL      -0.3941
     12 N12        53.0876   57.0717   35.6413 N.am        1 MOL      -0.2710
     13 C13        57.4860   51.1091   32.0421 C.3         1 MOL      -0.0096
     14 C14        53.1296   51.3668   34.4371 C.ar        1 MOL       0.0400
     15 C15        55.0406   49.6813   32.9908 C.3         1 MOL       0.0036
     16 N16        55.6196   48.9096   34.0961 N.4         1 MOL       0.2296
     17 C17        52.9441   51.3670   35.8430 C.ar        1 MOL      -0.0470
     18 C18        51.7109   50.9836   36.4007 C.ar        1 MOL      -0.0451
     19 C19        50.6560   50.5713   35.5686 C.ar        1 MOL       0.0429
     20 C20        50.8309   50.5587   34.1724 C.ar        1 MOL      -0.0313
     21 C21        52.0518   50.9680   33.6025 C.ar        1 MOL       0.0551
     22 CL22       52.1514   51.0005   31.9070 Cl          1 MOL      -0.0670
     23 CL23       49.1703   50.1210   36.2417 Cl          1 MOL      -0.0685
     24 C24        51.8282   56.3845   35.3978 C.3         1 MOL       0.0564
     25 C25        50.6460   57.3710   35.1953 C.3         1 MOL       0.0680
     26 O26        50.5909   58.4903   36.1067 O.3         1 MOL      -0.3758
     27 C27        51.6560   58.5842   37.0697 C.3         1 MOL       0.0680
     28 C28        53.0342   58.3059   36.4163 C.3         1 MOL       0.0564
     29 H1         53.0245   54.0214   35.2903 H           1 MOL       0.0902
     30 H2         58.3349   51.7754   31.8648 H           1 MOL       0.0451
     31 H3         57.1342   50.7553   31.0716 H           1 MOL       0.0451
     32 H4         57.8502   50.2641   32.6286 H           1 MOL       0.0451
     33 H5         55.4985   49.3466   32.0614 H           1 MOL       0.0958
     34 H6         53.9921   49.4012   32.9126 H           1 MOL       0.0958
     35 H7         55.4564   47.9150   33.9321 H           1 MOL       0.2006
     36 H8         55.1800   49.1822   34.9769 H           1 MOL       0.2006
     37 H9         56.6256   49.0790   34.1523 H           1 MOL       0.2006
     38 H10        53.6924   51.6767   36.4705 H           1 MOL       0.0642
     39 H11        51.5828   51.0430   37.4151 H           1 MOL       0.0629
     40 H12        50.0560   50.2750   33.5709 H           1 MOL       0.0634
     41 H13        51.6083   55.7361   36.2509 H           1 MOL       0.0544
     42 H14        51.8638   55.7684   34.4985 H           1 MOL       0.0544
     43 H15        49.7024   56.8231   35.2526 H           1 MOL       0.0580
     44 H16        50.7203   57.7906   34.1906 H           1 MOL       0.0580
     45 H17        51.4762   57.8626   37.8725 H           1 MOL       0.0580
     46 H18        51.6437   59.5846   37.5063 H           1 MOL       0.0580
     47 H19        53.2800   59.1486   35.7627 H           1 MOL       0.0544
     48 H20        53.7740   58.2717   37.2200 H           1 MOL       0.0544
@<TRIPOS>BOND
     1     1     2   2
     2     1     5   1
     3     1    14   1
     4     2     3   1
     5     2    15   1
     6     3     4   2
     7     3    13   1
     8     4     6   1
     9     5     6   1
    10     5     9   1
    11     6     7   2
    12     7     8   1
    13     8     9   2
    14     8    10   1
    15    10    11   2
    16    10    12  am
    17    12    24   1
    18    12    28   1
    19    14    17  ar
    20    14    21  ar
    21    15    16   1
    22    17    18  ar
    23    18    19  ar
    24    19    20  ar
    25    19    23   1
    26    20    21  ar
    27    21    22   1
    28    24    25   1
    29    25    26   1
    30    26    27   1
    31    27    28   1
    32     9    29   1
    33    13    30   1
    34    13    31   1
    35    13    32   1
    36    15    33   1
    37    15    34   1
    38    16    35   1
    39    16    36   1
    40    16    37   1
    41    17    38   1
    42    18    39   1
    43    20    40   1
    44    24    41   1
    45    24    42   1
    46    25    43   1
    47    25    44   1
    48    27    45   1
    49    27    46   1
    50    28    47   1
    51    28    48   1
@<TRIPOS>SUBSTRUCTURE
     1  MOL      1

