@<TRIPOS>MOLECULE
3nox_ligand_080
    48    51
SMALL
GAST_HUCK
****
This file was generated by PARSER (from files_GN.cpp)

@<TRIPOS>ATOM
      1 C1         48.5327   49.4190   36.0736 C.2         1 MOL       0.1404
      2 C2         48.9952   50.7018   35.9166 C.2         1 MOL       0.0782
      3 C3         49.2749   51.4497   37.0807 C.2         1 MOL       0.0387
      4 N4         49.0710   50.9396   38.2806 N.2         1 MOL      -0.2660
      5 N5         48.3323   48.9407   37.3432 N.pl3       1 MOL      -0.1859
      6 C6         48.6034   49.6952   38.4241 C.2         1 MOL       0.1941
      7 N7         48.3588   49.0597   39.5721 N.2         1 MOL      -0.3175
      8 C8         47.9209   47.8393   39.2432 C.2         1 MOL       0.0787
      9 C9         47.8850   47.7714   37.8463 C.2         1 MOL       0.0743
     10 C10        47.5239   46.8715   40.1504 C.2         1 MOL       0.1958
     11 O11        46.6223   46.1499   39.7357 O.2         1 MOL      -0.3941
     12 N12        47.9904   46.7165   41.4083 N.am        1 MOL      -0.2710
     13 C13        49.7726   52.8098   37.1275 C.3         1 MOL      -0.0096
     14 C14        48.2299   48.5684   34.9959 C.ar        1 MOL       0.0400
     15 C15        49.0888   51.3356   34.5832 C.3         1 MOL       0.0036
     16 N16        47.8091   51.9121   34.1590 N.4         1 MOL       0.2296
     17 C17        46.9000   48.0996   34.8483 C.ar        1 MOL      -0.0470
     18 C18        46.5509   47.2065   33.8222 C.ar        1 MOL      -0.0451
     19 C19        47.5213   46.7852   32.8981 C.ar        1 MOL       0.0429
     20 C20        48.8464   47.2336   33.0270 C.ar        1 MOL      -0.0313
     21 C21        49.2135   48.0922   34.0815 C.ar        1 MOL       0.0551
     22 CL22       50.8653   48.4481   34.2408 Cl          1 MOL      -0.0670
     23 CL23       47.1186   45.7189   31.6474 Cl          1 MOL      -0.0685
     24 C24        49.1303   47.4379   41.9463 C.3         1 MOL       0.0564
     25 C25        49.9755   46.5430   42.8903 C.3         1 MOL       0.0680
     26 O26        49.2390   45.8291   43.8992 O.3         1 MOL      -0.3758
     27 C27        47.8106   45.7920   43.7601 C.3         1 MOL       0.0680
     28 C28        47.3463   45.7542   42.2847 C.3         1 MOL       0.0564
     29 H1         47.5862   46.9552   37.3093 H           1 MOL       0.0902
     30 H2         49.8639   53.2049   38.1436 H           1 MOL       0.0451
     31 H3         49.0791   53.4510   36.5954 H           1 MOL       0.0451
     32 H4         50.7584   52.8554   36.6684 H           1 MOL       0.0451
     33 H5         49.4002   50.6396   33.8046 H           1 MOL       0.0958
     34 H6         49.8361   52.1234   34.5588 H           1 MOL       0.0958
     35 H7         47.9126   52.3045   33.2225 H           1 MOL       0.2006
     36 H8         47.5115   52.6534   34.7923 H           1 MOL       0.2006
     37 H9         47.1022   51.1779   34.1381 H           1 MOL       0.2006
     38 H10        46.1708   48.3958   35.5088 H           1 MOL       0.0642
     39 H11        45.5905   46.8631   33.7553 H           1 MOL       0.0629
     40 H12        49.5516   46.9140   32.3544 H           1 MOL       0.0634
     41 H13        48.7658   48.3006   42.5044 H           1 MOL       0.0544
     42 H14        49.8069   47.8053   41.1762 H           1 MOL       0.0544
     43 H15        50.7357   47.1491   43.3792 H           1 MOL       0.0580
     44 H16        50.4931   45.7902   42.3000 H           1 MOL       0.0580
     45 H17        47.3883   46.6764   44.2326 H           1 MOL       0.0580
     46 H18        47.4344   44.9202   44.2987 H           1 MOL       0.0580
     47 H19        47.5295   44.7449   41.9129 H           1 MOL       0.0544
     48 H20        46.2718   45.9395   42.2748 H           1 MOL       0.0544
@<TRIPOS>BOND
     1     1     2   2
     2     1     5   1
     3     1    14   1
     4     2     3   1
     5     2    15   1
     6     3     4   2
     7     3    13   1
     8     4     6   1
     9     5     6   1
    10     5     9   1
    11     6     7   2
    12     7     8   1
    13     8     9   2
    14     8    10   1
    15    10    11   2
    16    10    12  am
    17    12    24   1
    18    12    28   1
    19    14    17  ar
    20    14    21  ar
    21    15    16   1
    22    17    18  ar
    23    18    19  ar
    24    19    20  ar
    25    19    23   1
    26    20    21  ar
    27    21    22   1
    28    24    25   1
    29    25    26   1
    30    26    27   1
    31    27    28   1
    32     9    29   1
    33    13    30   1
    34    13    31   1
    35    13    32   1
    36    15    33   1
    37    15    34   1
    38    16    35   1
    39    16    36   1
    40    16    37   1
    41    17    38   1
    42    18    39   1
    43    20    40   1
    44    24    41   1
    45    24    42   1
    46    25    43   1
    47    25    44   1
    48    27    45   1
    49    27    46   1
    50    28    47   1
    51    28    48   1
@<TRIPOS>SUBSTRUCTURE
     1  MOL      1

