@<TRIPOS>MOLECULE
3nox_ligand_074
    48    51
SMALL
GAST_HUCK
****
This file was generated by PARSER (from files_GN.cpp)

@<TRIPOS>ATOM
      1 C1         48.9103   46.8094   30.9630 C.2         1 MOL       0.1404
      2 C2         50.2525   46.5642   30.8265 C.2         1 MOL       0.0782
      3 C3         50.9571   47.3031   29.8592 C.2         1 MOL       0.0387
      4 N4         50.3272   48.1927   29.0993 N.2         1 MOL      -0.2660
      5 N5         48.2963   47.6995   30.1325 N.pl3       1 MOL      -0.1859
      6 C6         49.0007   48.3995   29.2224 C.2         1 MOL       0.1941
      7 N7         48.2193   49.2507   28.5390 N.2         1 MOL      -0.3175
      8 C8         46.9690   49.0734   28.9952 C.2         1 MOL       0.0787
      9 C9         47.0155   48.1038   29.9979 C.2         1 MOL       0.0743
     10 C10        45.8599   49.7867   28.5739 C.2         1 MOL       0.1958
     11 O11        45.9002   50.9766   28.8587 O.2         1 MOL      -0.3941
     12 N12        44.8029   49.2692   27.9174 N.am        1 MOL      -0.2710
     13 C13        52.3867   47.1738   29.6028 C.3         1 MOL      -0.0096
     14 C14        48.1398   46.2352   31.9760 C.ar        1 MOL       0.0400
     15 C15        50.9653   45.6163   31.7084 C.3         1 MOL       0.0036
     16 N16        51.4753   46.3031   32.9007 N.4         1 MOL       0.2296
     17 C17        48.0308   46.9135   33.2131 C.ar        1 MOL      -0.0470
     18 C18        47.2804   46.3653   34.2678 C.ar        1 MOL      -0.0451
     19 C19        46.6307   45.1297   34.0987 C.ar        1 MOL       0.0429
     20 C20        46.7339   44.4441   32.8744 C.ar        1 MOL      -0.0313
     21 C21        47.4831   44.9874   31.8104 C.ar        1 MOL       0.0551
     22 CL22       47.5723   44.0993   30.3656 Cl          1 MOL      -0.0670
     23 CL23       45.7310   44.4618   35.3653 Cl          1 MOL      -0.0685
     24 C24        43.5473   49.9907   27.7629 C.3         1 MOL       0.0564
     25 C25        43.1955   50.1297   26.2604 C.3         1 MOL       0.0680
     26 O26        43.1845   48.8343   25.6288 O.3         1 MOL      -0.3758
     27 C27        44.4205   48.1052   25.7786 C.3         1 MOL       0.0680
     28 C28        44.8278   47.9665   27.2714 C.3         1 MOL       0.0564
     29 H1         46.2191   47.7849   30.5545 H           1 MOL       0.0902
     30 H2         52.7408   47.8786   28.8461 H           1 MOL       0.0451
     31 H3         52.6090   46.1674   29.2435 H           1 MOL       0.0451
     32 H4         52.9520   47.3611   30.5177 H           1 MOL       0.0451
     33 H5         51.8036   45.1358   31.2033 H           1 MOL       0.0958
     34 H6         50.3262   44.7956   32.0387 H           1 MOL       0.0958
     35 H7         52.0161   45.6458   33.4680 H           1 MOL       0.2006
     36 H8         50.6933   46.6595   33.4536 H           1 MOL       0.2006
     37 H9         52.0757   47.0826   32.6231 H           1 MOL       0.2006
     38 H10        48.5027   47.8110   33.3600 H           1 MOL       0.0642
     39 H11        47.2163   46.8667   35.1570 H           1 MOL       0.0629
     40 H12        46.2536   43.5475   32.7664 H           1 MOL       0.0634
     41 H13        43.5436   50.9826   28.2201 H           1 MOL       0.0544
     42 H14        42.7534   49.4156   28.2511 H           1 MOL       0.0544
     43 H15        43.9096   50.7915   25.7624 H           1 MOL       0.0580
     44 H16        42.2005   50.5689   26.1577 H           1 MOL       0.0580
     45 H17        45.2127   48.6052   25.2141 H           1 MOL       0.0580
     46 H18        44.2796   47.1112   25.3497 H           1 MOL       0.0580
     47 H19        44.1184   47.3064   27.7775 H           1 MOL       0.0544
     48 H20        45.8058   47.4808   27.3013 H           1 MOL       0.0544
@<TRIPOS>BOND
     1     1     2   2
     2     1     5   1
     3     1    14   1
     4     2     3   1
     5     2    15   1
     6     3     4   2
     7     3    13   1
     8     4     6   1
     9     5     6   1
    10     5     9   1
    11     6     7   2
    12     7     8   1
    13     8     9   2
    14     8    10   1
    15    10    11   2
    16    10    12  am
    17    12    24   1
    18    12    28   1
    19    14    17  ar
    20    14    21  ar
    21    15    16   1
    22    17    18  ar
    23    18    19  ar
    24    19    20  ar
    25    19    23   1
    26    20    21  ar
    27    21    22   1
    28    24    25   1
    29    25    26   1
    30    26    27   1
    31    27    28   1
    32     9    29   1
    33    13    30   1
    34    13    31   1
    35    13    32   1
    36    15    33   1
    37    15    34   1
    38    16    35   1
    39    16    36   1
    40    16    37   1
    41    17    38   1
    42    18    39   1
    43    20    40   1
    44    24    41   1
    45    24    42   1
    46    25    43   1
    47    25    44   1
    48    27    45   1
    49    27    46   1
    50    28    47   1
    51    28    48   1
@<TRIPOS>SUBSTRUCTURE
     1  MOL      1

