@<TRIPOS>MOLECULE
3nox_ligand_059
    48    51
SMALL
GAST_HUCK
****
This file was generated by PARSER (from files_GN.cpp)

@<TRIPOS>ATOM
      1 C1         47.4820   50.8233   31.5804 C.2         1 MOL       0.1404
      2 C2         46.8180   51.7229   30.7838 C.2         1 MOL       0.0782
      3 C3         47.1559   51.7745   29.4153 C.2         1 MOL       0.0387
      4 N4         48.1019   50.9826   28.9261 N.2         1 MOL      -0.2660
      5 N5         48.4393   50.0244   31.0235 N.pl3       1 MOL      -0.1859
      6 C6         48.7495   50.1089   29.7168 C.2         1 MOL       0.1941
      7 N7         49.7155   49.2452   29.3754 N.2         1 MOL      -0.3175
      8 C8         50.0589   48.5896   30.4967 C.2         1 MOL       0.0787
      9 C9         49.2325   49.0550   31.5222 C.2         1 MOL       0.0743
     10 C10        51.0246   47.5965   30.5645 C.2         1 MOL       0.1958
     11 O11        51.0448   46.8527   29.5910 O.2         1 MOL      -0.3941
     12 N12        51.9267   47.4347   31.5506 N.am        1 MOL      -0.2710
     13 C13        46.5392   52.6555   28.4262 C.3         1 MOL      -0.0096
     14 C14        47.2433   50.6763   32.9555 C.ar        1 MOL       0.0400
     15 C15        45.8448   52.6752   31.3492 C.3         1 MOL       0.0036
     16 N16        46.5028   53.8375   31.9596 N.4         1 MOL       0.2296
     17 C17        45.9587   50.2671   33.3946 C.ar        1 MOL      -0.0470
     18 C18        45.6915   50.0703   34.7607 C.ar        1 MOL      -0.0451
     19 C19        46.7077   50.2515   35.7154 C.ar        1 MOL       0.0429
     20 C20        47.9969   50.6305   35.2939 C.ar        1 MOL      -0.0313
     21 C21        48.2670   50.8510   33.9273 C.ar        1 MOL       0.0551
     22 CL22       49.8472   51.3040   33.5164 Cl          1 MOL      -0.0670
     23 CL23       46.3808   49.9990   37.3569 Cl          1 MOL      -0.0685
     24 C24        52.2613   48.4715   32.5146 C.3         1 MOL       0.0564
     25 C25        52.1016   47.9162   33.9504 C.3         1 MOL       0.0680
     26 O26        52.8732   46.7081   34.1097 O.3         1 MOL      -0.3758
     27 C27        52.5516   45.6810   33.1485 C.3         1 MOL       0.0680
     28 C28        52.7034   46.2102   31.6971 C.3         1 MOL       0.0564
     29 H1         49.2268   48.7074   32.4825 H           1 MOL       0.0902
     30 H2         46.9838   52.5490   27.4325 H           1 MOL       0.0451
     31 H3         46.6560   53.6981   28.7290 H           1 MOL       0.0451
     32 H4         45.4765   52.4223   28.3349 H           1 MOL       0.0451
     33 H5         45.2064   52.2011   32.0953 H           1 MOL       0.0958
     34 H6         45.1563   53.0644   30.6016 H           1 MOL       0.0958
     35 H7         45.7766   54.4552   32.3311 H           1 MOL       0.2006
     36 H8         47.0431   54.3360   31.2456 H           1 MOL       0.2006
     37 H9         47.1264   53.5441   32.7164 H           1 MOL       0.2006
     38 H10        45.2035   50.1073   32.7231 H           1 MOL       0.0642
     39 H11        44.7535   49.7881   35.0563 H           1 MOL       0.0629
     40 H12        48.7414   50.7449   35.9870 H           1 MOL       0.0634
     41 H13        51.6760   49.3859   32.4199 H           1 MOL       0.0544
     42 H14        53.3048   48.7617   32.3643 H           1 MOL       0.0544
     43 H15        51.0475   47.7236   34.1674 H           1 MOL       0.0580
     44 H16        52.4657   48.6564   34.6654 H           1 MOL       0.0580
     45 H17        51.5307   45.3251   33.3093 H           1 MOL       0.0580
     46 H18        53.2302   44.8400   33.3062 H           1 MOL       0.0580
     47 H19        53.7580   46.4234   31.5021 H           1 MOL       0.0544
     48 H20        52.4004   45.4132   31.0122 H           1 MOL       0.0544
@<TRIPOS>BOND
     1     1     2   2
     2     1     5   1
     3     1    14   1
     4     2     3   1
     5     2    15   1
     6     3     4   2
     7     3    13   1
     8     4     6   1
     9     5     6   1
    10     5     9   1
    11     6     7   2
    12     7     8   1
    13     8     9   2
    14     8    10   1
    15    10    11   2
    16    10    12  am
    17    12    24   1
    18    12    28   1
    19    14    17  ar
    20    14    21  ar
    21    15    16   1
    22    17    18  ar
    23    18    19  ar
    24    19    20  ar
    25    19    23   1
    26    20    21  ar
    27    21    22   1
    28    24    25   1
    29    25    26   1
    30    26    27   1
    31    27    28   1
    32     9    29   1
    33    13    30   1
    34    13    31   1
    35    13    32   1
    36    15    33   1
    37    15    34   1
    38    16    35   1
    39    16    36   1
    40    16    37   1
    41    17    38   1
    42    18    39   1
    43    20    40   1
    44    24    41   1
    45    24    42   1
    46    25    43   1
    47    25    44   1
    48    27    45   1
    49    27    46   1
    50    28    47   1
    51    28    48   1
@<TRIPOS>SUBSTRUCTURE
     1  MOL      1

