@<TRIPOS>MOLECULE
3nq3_ligand_010
    31    30
SMALL
GAST_HUCK
****
This file was generated by PARSER (from files_GN.cpp)

@<TRIPOS>ATOM
      1 C1          9.0328   -1.3809   -0.8808 C.2         1 DKA       0.0348
      2 O1          9.3343   -2.7130   -0.9262 O.co2       1 DKA      -0.5690
      3 C2          9.9128   -0.4901   -0.0792 C.3         1 DKA       0.0002
      4 C3          9.5939    1.0376   -0.1102 C.3         1 DKA      -0.0414
      5 C4         10.8265    1.9710    0.1018 C.3         1 DKA      -0.0516
      6 C5         10.5935    3.4443   -0.3560 C.3         1 DKA      -0.0530
      7 C6          9.7007    4.3099    0.5855 C.3         1 DKA      -0.0531
      8 C7         10.4276    5.4167    1.4031 C.3         1 DKA      -0.0531
      9 C8         11.2199    4.9165    2.6563 C.3         1 DKA      -0.0533
     10 C9         11.0038    5.8805    3.8658 C.3         1 DKA      -0.0559
     11 C10        12.0696    5.7735    4.9905 C.3         1 DKA      -0.0653
     12 O2          7.9280   -0.9579   -1.5153 O.co2       1 DKA      -0.5690
     13 H1         10.9354   -0.6356   -0.4269 H           1 DKA       0.0430
     14 H2          9.8560   -0.8348    0.9539 H           1 DKA       0.0430
     15 H3          8.8528    1.2542    0.6620 H           1 DKA       0.0283
     16 H4          9.1383    1.2838   -1.0678 H           1 DKA       0.0283
     17 H5         11.6656    1.5808   -0.4785 H           1 DKA       0.0266
     18 H6         11.1251    1.9643    1.1493 H           1 DKA       0.0266
     19 H7         10.1254    3.4178   -1.3499 H           1 DKA       0.0265
     20 H8         11.5674    3.9367   -0.4961 H           1 DKA       0.0265
     21 H9          9.1435    3.6842    1.2787 H           1 DKA       0.0265
     22 H10         8.9626    4.8255   -0.0315 H           1 DKA       0.0265
     23 H11         9.6524    6.1369    1.7154 H           1 DKA       0.0265
     24 H12        11.1305    5.9578    0.7534 H           1 DKA       0.0265
     25 H13        12.2969    4.8667    2.4172 H           1 DKA       0.0265
     26 H14        10.8826    3.9166    2.9579 H           1 DKA       0.0265
     27 H15        10.0204    5.6624    4.3130 H           1 DKA       0.0263
     28 H16        10.9968    6.9273    3.5085 H           1 DKA       0.0263
     29 H17        11.7669    6.4230    5.8241 H           1 DKA       0.0230
     30 H18        13.0427    6.1163    4.6074 H           1 DKA       0.0230
     31 H19        12.1527    4.7373    5.3500 H           1 DKA       0.0230
@<TRIPOS>BOND
     1     1     2  ar
     2     1     3   1
     3     1    12  ar
     4     3     4   1
     5     4     5   1
     6     5     6   1
     7     6     7   1
     8     7     8   1
     9     8     9   1
    10     9    10   1
    11    10    11   1
    12     3    13   1
    13     3    14   1
    14     4    15   1
    15     4    16   1
    16     5    17   1
    17     5    18   1
    18     6    19   1
    19     6    20   1
    20     7    21   1
    21     7    22   1
    22     8    23   1
    23     8    24   1
    24     9    25   1
    25     9    26   1
    26    10    27   1
    27    10    28   1
    28    11    29   1
    29    11    30   1
    30    11    31   1
@<TRIPOS>SUBSTRUCTURE
     1  DKA      1

