@<TRIPOS>MOLECULE
3nq3_ligand_017
    31    30
SMALL
GAST_HUCK
****
This file was generated by PARSER (from files_GN.cpp)

@<TRIPOS>ATOM
      1 C1         11.4336   -5.7760    4.2260 C.2         1 DKA       0.0348
      2 O1         11.5357   -6.6732    5.2293 O.co2       1 DKA      -0.5690
      3 C2         10.3582   -5.9266    3.2251 C.3         1 DKA       0.0002
      4 C3         10.3258   -4.8842    2.0665 C.3         1 DKA      -0.0414
      5 C4         11.3102   -5.1539    0.8850 C.3         1 DKA      -0.0516
      6 C5         12.7140   -4.5134    1.0504 C.3         1 DKA      -0.0530
      7 C6         13.6198   -4.5812   -0.2245 C.3         1 DKA      -0.0531
      8 C7         14.9333   -5.4200   -0.0765 C.3         1 DKA      -0.0531
      9 C8         16.2483   -4.6765   -0.4467 C.3         1 DKA      -0.0533
     10 C9         16.5872   -4.6872   -1.9615 C.3         1 DKA      -0.0559
     11 C10        18.0233   -4.1848   -2.2326 C.3         1 DKA      -0.0653
     12 O2         12.3285   -4.7598    4.2028 O.co2       1 DKA      -0.5690
     13 H1          9.4119   -5.8763    3.7668 H           1 DKA       0.0430
     14 H2         10.4228   -6.9311    2.8040 H           1 DKA       0.0430
     15 H3         10.4819   -3.8765    2.4614 H           1 DKA       0.0283
     16 H4          9.3126   -4.8900    1.6569 H           1 DKA       0.0283
     17 H5         10.8641   -4.7523   -0.0308 H           1 DKA       0.0266
     18 H6         11.4275   -6.2306    0.7426 H           1 DKA       0.0266
     19 H7         13.2034   -5.0024    1.8888 H           1 DKA       0.0265
     20 H8         12.5826   -3.4650    1.3314 H           1 DKA       0.0265
     21 H9         13.8689   -3.5566   -0.5153 H           1 DKA       0.0265
     22 H10        13.0503   -4.9901   -1.0645 H           1 DKA       0.0265
     23 H11        14.8558   -6.3254   -0.6862 H           1 DKA       0.0265
     24 H12        15.0464   -5.7707    0.9527 H           1 DKA       0.0265
     25 H13        17.0672   -5.1611    0.0907 H           1 DKA       0.0265
     26 H14        16.1910   -3.6439   -0.0958 H           1 DKA       0.0265
     27 H15        15.8766   -4.0568   -2.5023 H           1 DKA       0.0263
     28 H16        16.5030   -5.7059   -2.3499 H           1 DKA       0.0263
     29 H17        18.2307   -4.2069   -3.3036 H           1 DKA       0.0230
     30 H18        18.7488   -4.8266   -1.7274 H           1 DKA       0.0230
     31 H19        18.1458   -3.1623   -1.8710 H           1 DKA       0.0230
@<TRIPOS>BOND
     1     1     2  ar
     2     1     3   1
     3     1    12  ar
     4     3     4   1
     5     4     5   1
     6     5     6   1
     7     6     7   1
     8     7     8   1
     9     8     9   1
    10     9    10   1
    11    10    11   1
    12     3    13   1
    13     3    14   1
    14     4    15   1
    15     4    16   1
    16     5    17   1
    17     5    18   1
    18     6    19   1
    19     6    20   1
    20     7    21   1
    21     7    22   1
    22     8    23   1
    23     8    24   1
    24     9    25   1
    25     9    26   1
    26    10    27   1
    27    10    28   1
    28    11    29   1
    29    11    30   1
    30    11    31   1
@<TRIPOS>SUBSTRUCTURE
     1  DKA      1

