@<TRIPOS>MOLECULE
3nq3_ligand_008
    31    30
SMALL
GAST_HUCK
****
This file was generated by PARSER (from files_GN.cpp)

@<TRIPOS>ATOM
      1 C1          4.1450   -2.6522    2.5316 C.2         1 DKA       0.0348
      2 O1          4.4182   -1.7060    3.4564 O.co2       1 DKA      -0.5690
      3 C2          5.2556   -3.2615    1.7790 C.3         1 DKA       0.0002
      4 C3          6.0726   -2.2131    0.9662 C.3         1 DKA      -0.0414
      5 C4          7.5514   -2.6599    0.7844 C.3         1 DKA      -0.0516
      6 C5          8.3792   -1.7278   -0.1396 C.3         1 DKA      -0.0530
      7 C6          9.6441   -2.4385   -0.7105 C.3         1 DKA      -0.0531
      8 C7         10.8671   -2.4735    0.2722 C.3         1 DKA      -0.0531
      9 C8         11.7132   -3.8044    0.2638 C.3         1 DKA      -0.0533
     10 C9         11.8066   -4.5100    1.6574 C.3         1 DKA      -0.0559
     11 C10        10.5559   -5.3587    2.0140 C.3         1 DKA      -0.0653
     12 O2          2.9546   -3.2945    2.6183 O.co2       1 DKA      -0.5690
     13 H1          4.8686   -4.0191    1.0891 H           1 DKA       0.0430
     14 H2          5.9020   -3.7672    2.5067 H           1 DKA       0.0430
     15 H3          6.0682   -1.2435    1.4825 H           1 DKA       0.0283
     16 H4          5.6086   -2.0865   -0.0178 H           1 DKA       0.0283
     17 H5          7.5560   -3.6724    0.3670 H           1 DKA       0.0266
     18 H6          8.0139   -2.6964    1.7744 H           1 DKA       0.0266
     19 H7          8.6755   -0.8191    0.3962 H           1 DKA       0.0265
     20 H8          7.7583   -1.4311   -0.9914 H           1 DKA       0.0265
     21 H9          9.9584   -1.9164   -1.6229 H           1 DKA       0.0265
     22 H10         9.3543   -3.4580   -1.0054 H           1 DKA       0.0265
     23 H11        10.5373   -2.2564    1.2962 H           1 DKA       0.0265
     24 H12        11.5383   -1.6404    0.0108 H           1 DKA       0.0265
     25 H13        12.7384   -3.5544   -0.0578 H           1 DKA       0.0265
     26 H14        11.3205   -4.5238   -0.4729 H           1 DKA       0.0265
     27 H15        11.9794   -3.7455    2.4333 H           1 DKA       0.0263
     28 H16        12.6778   -5.1708    1.6349 H           1 DKA       0.0263
     29 H17        10.6917   -5.7716    3.0211 H           1 DKA       0.0230
     30 H18        10.4475   -6.1796    1.2905 H           1 DKA       0.0230
     31 H19         9.6533   -4.7318    2.0016 H           1 DKA       0.0230
@<TRIPOS>BOND
     1     1     2  ar
     2     1     3   1
     3     1    12  ar
     4     3     4   1
     5     4     5   1
     6     5     6   1
     7     6     7   1
     8     7     8   1
     9     8     9   1
    10     9    10   1
    11    10    11   1
    12     3    13   1
    13     3    14   1
    14     4    15   1
    15     4    16   1
    16     5    17   1
    17     5    18   1
    18     6    19   1
    19     6    20   1
    20     7    21   1
    21     7    22   1
    22     8    23   1
    23     8    24   1
    24     9    25   1
    25     9    26   1
    26    10    27   1
    27    10    28   1
    28    11    29   1
    29    11    30   1
    30    11    31   1
@<TRIPOS>SUBSTRUCTURE
     1  DKA      1

