@<TRIPOS>MOLECULE
3nq3_ligand_016
    31    30
SMALL
GAST_HUCK
****
This file was generated by PARSER (from files_GN.cpp)

@<TRIPOS>ATOM
      1 C1          8.9250   -2.6781   -0.5125 C.2         1 DKA       0.0348
      2 O1          8.1450   -3.3405    0.3723 O.co2       1 DKA      -0.5690
      3 C2         10.2680   -3.1784   -0.8557 C.3         1 DKA       0.0002
      4 C3         11.2073   -3.2116    0.3819 C.3         1 DKA      -0.0414
      5 C4         12.5600   -3.9422    0.1412 C.3         1 DKA      -0.0516
      6 C5         13.7132   -3.0212   -0.3592 C.3         1 DKA      -0.0530
      7 C6         15.0926   -3.7341   -0.4574 C.3         1 DKA      -0.0531
      8 C7         15.2524   -4.6244   -1.7230 C.3         1 DKA      -0.0531
      9 C8         16.3924   -5.6759   -1.6324 C.3         1 DKA      -0.0533
     10 C9         17.8288   -5.0787   -1.6247 C.3         1 DKA      -0.0559
     11 C10        18.8979   -6.1323   -1.9988 C.3         1 DKA      -0.0653
     12 O2          8.4587   -1.5284   -1.0571 O.co2       1 DKA      -0.5690
     13 H1         10.6981   -2.5409   -1.6302 H           1 DKA       0.0430
     14 H2         10.1664   -4.1852   -1.2654 H           1 DKA       0.0430
     15 H3         10.6899   -3.7401    1.1899 H           1 DKA       0.0283
     16 H4         11.4032   -2.1930    0.7323 H           1 DKA       0.0283
     17 H5         12.3975   -4.7558   -0.5677 H           1 DKA       0.0266
     18 H6         12.8696   -4.3929    1.0909 H           1 DKA       0.0266
     19 H7         13.8128   -2.1931    0.3487 H           1 DKA       0.0265
     20 H8         13.4649   -2.5941   -1.3343 H           1 DKA       0.0265
     21 H9         15.2524   -4.3329    0.4454 H           1 DKA       0.0265
     22 H10        15.8696   -2.9621   -0.4843 H           1 DKA       0.0265
     23 H11        15.4251   -3.9793   -2.5941 H           1 DKA       0.0265
     24 H12        14.3244   -5.1780   -1.9093 H           1 DKA       0.0265
     25 H13        16.2943   -6.3443   -2.4909 H           1 DKA       0.0265
     26 H14        16.2502   -6.2799   -0.7296 H           1 DKA       0.0265
     27 H15        18.0563   -4.6894   -0.6293 H           1 DKA       0.0263
     28 H16        17.8860   -4.2522   -2.3426 H           1 DKA       0.0263
     29 H17        19.8916   -5.6849   -1.9370 H           1 DKA       0.0230
     30 H18        18.7342   -6.4958   -3.0184 H           1 DKA       0.0230
     31 H19        18.8446   -6.9781   -1.3056 H           1 DKA       0.0230
@<TRIPOS>BOND
     1     1     2  ar
     2     1     3   1
     3     1    12  ar
     4     3     4   1
     5     4     5   1
     6     5     6   1
     7     6     7   1
     8     7     8   1
     9     8     9   1
    10     9    10   1
    11    10    11   1
    12     3    13   1
    13     3    14   1
    14     4    15   1
    15     4    16   1
    16     5    17   1
    17     5    18   1
    18     6    19   1
    19     6    20   1
    20     7    21   1
    21     7    22   1
    22     8    23   1
    23     8    24   1
    24     9    25   1
    25     9    26   1
    26    10    27   1
    27    10    28   1
    28    11    29   1
    29    11    30   1
    30    11    31   1
@<TRIPOS>SUBSTRUCTURE
     1  DKA      1

