@<TRIPOS>MOLECULE
3nq3_ligand_001
    31    30
SMALL
GAST_HUCK
****
This file was generated by PARSER (from files_GN.cpp)

@<TRIPOS>ATOM
      1 C1         11.6572    4.7515    6.1325 C.2         1 DKA       0.0348
      2 O1         12.0222    3.8378    5.2058 O.co2       1 DKA      -0.5690
      3 C2         11.4130    6.1595    5.7420 C.3         1 DKA       0.0002
      4 C3         10.0237    6.4211    5.0913 C.3         1 DKA      -0.0414
      5 C4          9.7833    5.8390    3.6723 C.3         1 DKA      -0.0516
      6 C5         10.7673    6.3519    2.5740 C.3         1 DKA      -0.0530
      7 C6         10.7396    5.5191    1.2594 C.3         1 DKA      -0.0531
      8 C7         11.3830    4.1075    1.4207 C.3         1 DKA      -0.0531
      9 C8         10.5950    2.9428    0.7585 C.3         1 DKA      -0.0533
     10 C9         10.7204    2.7830   -0.7804 C.3         1 DKA      -0.0559
     11 C10        12.1655    2.8953   -1.3279 C.3         1 DKA      -0.0653
     12 O2         11.7529    4.4114    7.4377 O.co2       1 DKA      -0.5690
     13 H1         12.2087    6.4795    5.0723 H           1 DKA       0.0430
     14 H2         11.4791    6.7886    6.6330 H           1 DKA       0.0430
     15 H3          9.8705    7.5052    5.0453 H           1 DKA       0.0283
     16 H4          9.2560    6.0128    5.7581 H           1 DKA       0.0283
     17 H5          8.7679    6.1154    3.3605 H           1 DKA       0.0266
     18 H6          9.8049    4.7526    3.7414 H           1 DKA       0.0266
     19 H7         11.7888    6.3539    2.9585 H           1 DKA       0.0265
     20 H8         10.5072    7.3840    2.3306 H           1 DKA       0.0265
     21 H9         11.3050    6.0523    0.4921 H           1 DKA       0.0265
     22 H10         9.7019    5.4440    0.9165 H           1 DKA       0.0265
     23 H11        11.4689    3.8464    2.4753 H           1 DKA       0.0265
     24 H12        12.4088    4.1457    1.0518 H           1 DKA       0.0265
     25 H13         9.5309    3.0699    0.9976 H           1 DKA       0.0265
     26 H14        10.9165    2.0051    1.2285 H           1 DKA       0.0265
     27 H15        10.0854    3.5199   -1.2828 H           1 DKA       0.0263
     28 H16        10.3340    1.7916   -1.0337 H           1 DKA       0.0263
     29 H17        12.1784    2.5789   -2.3769 H           1 DKA       0.0230
     30 H18        12.8442    2.2538   -0.7533 H           1 DKA       0.0230
     31 H19        12.5108    3.9291   -1.2730 H           1 DKA       0.0230
@<TRIPOS>BOND
     1     1     2  ar
     2     1     3   1
     3     1    12  ar
     4     3     4   1
     5     4     5   1
     6     5     6   1
     7     6     7   1
     8     7     8   1
     9     8     9   1
    10     9    10   1
    11    10    11   1
    12     3    13   1
    13     3    14   1
    14     4    15   1
    15     4    16   1
    16     5    17   1
    17     5    18   1
    18     6    19   1
    19     6    20   1
    20     7    21   1
    21     7    22   1
    22     8    23   1
    23     8    24   1
    24     9    25   1
    25     9    26   1
    26    10    27   1
    27    10    28   1
    28    11    29   1
    29    11    30   1
    30    11    31   1
@<TRIPOS>SUBSTRUCTURE
     1  DKA      1

