@<TRIPOS>MOLECULE
3nq3_ligand_012
    31    30
SMALL
GAST_HUCK
****
This file was generated by PARSER (from files_GN.cpp)

@<TRIPOS>ATOM
      1 C1          3.6403    5.2479    0.0109 C.2         1 DKA       0.0348
      2 O1          3.6139    6.4983   -0.5088 O.co2       1 DKA      -0.5690
      3 C2          4.8778    4.4411    0.0969 C.3         1 DKA       0.0002
      4 C3          6.1777    5.1534   -0.3709 C.3         1 DKA      -0.0414
      5 C4          7.4651    4.2834   -0.2223 C.3         1 DKA      -0.0516
      6 C5          8.0203    4.1895    1.2318 C.3         1 DKA      -0.0530
      7 C6          8.7419    5.4745    1.7363 C.3         1 DKA      -0.0531
      8 C7         10.2903    5.4761    1.5601 C.3         1 DKA      -0.0531
      9 C8         11.1105    4.9177    2.7609 C.3         1 DKA      -0.0533
     10 C9         10.9697    5.7579    4.0632 C.3         1 DKA      -0.0559
     11 C10        12.1749    5.6289    5.0162 C.3         1 DKA      -0.0653
     12 O2          2.4771    4.7068    0.4276 O.co2       1 DKA      -0.5690
     13 H1          4.7312    3.5465   -0.5093 H           1 DKA       0.0430
     14 H2          4.9824    4.1243    1.1326 H           1 DKA       0.0430
     15 H3          6.3007    6.0881    0.1811 H           1 DKA       0.0283
     16 H4          6.0626    5.4107   -1.4285 H           1 DKA       0.0283
     17 H5          8.2478    4.6931   -0.8635 H           1 DKA       0.0266
     18 H6          7.2562    3.2751   -0.5868 H           1 DKA       0.0266
     19 H7          8.7031    3.3397    1.2950 H           1 DKA       0.0265
     20 H8          7.1960    3.9635    1.9066 H           1 DKA       0.0265
     21 H9          8.4953    5.6248    2.7876 H           1 DKA       0.0265
     22 H10         8.3480    6.3449    1.2094 H           1 DKA       0.0265
     23 H11        10.6231    6.4993    1.3828 H           1 DKA       0.0265
     24 H12        10.5523    4.9090    0.6638 H           1 DKA       0.0265
     25 H13        12.1640    4.9083    2.4603 H           1 DKA       0.0265
     26 H14        10.8164    3.8848    2.9581 H           1 DKA       0.0265
     27 H15        10.0718    5.4374    4.6003 H           1 DKA       0.0263
     28 H16        10.8505    6.8123    3.8103 H           1 DKA       0.0263
     29 H17        11.9845    6.1979    5.9278 H           1 DKA       0.0230
     30 H18        13.0741    6.0278    4.5400 H           1 DKA       0.0230
     31 H19        12.3396    4.5856    5.2850 H           1 DKA       0.0230
@<TRIPOS>BOND
     1     1     2  ar
     2     1     3   1
     3     1    12  ar
     4     3     4   1
     5     4     5   1
     6     5     6   1
     7     6     7   1
     8     7     8   1
     9     8     9   1
    10     9    10   1
    11    10    11   1
    12     3    13   1
    13     3    14   1
    14     4    15   1
    15     4    16   1
    16     5    17   1
    17     5    18   1
    18     6    19   1
    19     6    20   1
    20     7    21   1
    21     7    22   1
    22     8    23   1
    23     8    24   1
    24     9    25   1
    25     9    26   1
    26    10    27   1
    27    10    28   1
    28    11    29   1
    29    11    30   1
    30    11    31   1
@<TRIPOS>SUBSTRUCTURE
     1  DKA      1

