@<TRIPOS>MOLECULE
3nq3_ligand_009
    31    30
SMALL
GAST_HUCK
****
This file was generated by PARSER (from files_GN.cpp)

@<TRIPOS>ATOM
      1 C1          6.5322    8.5391    5.4315 C.2         1 DKA       0.0348
      2 O1          5.4727    9.3728    5.5362 O.co2       1 DKA      -0.5690
      3 C2          7.3872    8.5612    4.2336 C.3         1 DKA       0.0002
      4 C3          7.4489    7.1768    3.5374 C.3         1 DKA      -0.0414
      5 C4          8.2684    7.2122    2.2159 C.3         1 DKA      -0.0516
      6 C5          9.0991    5.9164    1.9459 C.3         1 DKA      -0.0530
      7 C6         10.6469    6.0726    2.0900 C.3         1 DKA      -0.0531
      8 C7         11.3917    4.8053    2.5926 C.3         1 DKA      -0.0531
      9 C8         11.1543    4.4567    4.0897 C.3         1 DKA      -0.0533
     10 C9         11.8649    5.3843    5.1277 C.3         1 DKA      -0.0559
     11 C10        10.9440    6.4481    5.7723 C.3         1 DKA      -0.0653
     12 O2          6.7783    7.6677    6.4346 O.co2       1 DKA      -0.5690
     13 H1          8.3932    8.8694    4.5301 H           1 DKA       0.0430
     14 H2          7.0014    9.3023    3.5296 H           1 DKA       0.0430
     15 H3          6.4343    6.8403    3.3028 H           1 DKA       0.0283
     16 H4          7.8879    6.4526    4.2271 H           1 DKA       0.0283
     17 H5          8.9211    8.0877    2.2253 H           1 DKA       0.0266
     18 H6          7.5615    7.3599    1.3932 H           1 DKA       0.0266
     19 H7          8.8902    5.5787    0.9262 H           1 DKA       0.0265
     20 H8          8.7433    5.1173    2.5992 H           1 DKA       0.0265
     21 H9         10.8933    6.8972    2.7586 H           1 DKA       0.0265
     22 H10        11.0590    6.3324    1.1113 H           1 DKA       0.0265
     23 H11        12.4643    4.9460    2.4410 H           1 DKA       0.0265
     24 H12        11.0920    3.9526    1.9759 H           1 DKA       0.0265
     25 H13        11.5147    3.4335    4.2401 H           1 DKA       0.0265
     26 H14        10.0790    4.4353    4.2763 H           1 DKA       0.0265
     27 H15        12.7150    5.8950    4.6684 H           1 DKA       0.0263
     28 H16        12.2666    4.7675    5.9358 H           1 DKA       0.0263
     29 H17        11.4960    7.0226    6.5162 H           1 DKA       0.0230
     30 H18        10.1001    5.9702    6.2693 H           1 DKA       0.0230
     31 H19        10.5718    7.1370    5.0148 H           1 DKA       0.0230
@<TRIPOS>BOND
     1     1     2  ar
     2     1     3   1
     3     1    12  ar
     4     3     4   1
     5     4     5   1
     6     5     6   1
     7     6     7   1
     8     7     8   1
     9     8     9   1
    10     9    10   1
    11    10    11   1
    12     3    13   1
    13     3    14   1
    14     4    15   1
    15     4    16   1
    16     5    17   1
    17     5    18   1
    18     6    19   1
    19     6    20   1
    20     7    21   1
    21     7    22   1
    22     8    23   1
    23     8    24   1
    24     9    25   1
    25     9    26   1
    26    10    27   1
    27    10    28   1
    28    11    29   1
    29    11    30   1
    30    11    31   1
@<TRIPOS>SUBSTRUCTURE
     1  DKA      1

