@<TRIPOS>MOLECULE
3nq3_ligand_024
    31    30
SMALL
GAST_HUCK
****
This file was generated by PARSER (from files_GN.cpp)

@<TRIPOS>ATOM
      1 C1          8.6958   -2.8487    1.6723 C.2         1 DKA       0.0348
      2 O1          8.8038   -1.8239    2.5431 O.co2       1 DKA      -0.5690
      3 C2          8.3856   -2.5865    0.2581 C.3         1 DKA       0.0002
      4 C3          9.5427   -1.9294   -0.5495 C.3         1 DKA      -0.0414
      5 C4         10.5735   -2.9074   -1.1685 C.3         1 DKA      -0.0516
      6 C5         11.5499   -3.5964   -0.1700 C.3         1 DKA      -0.0530
      7 C6         12.6841   -2.6882    0.3749 C.3         1 DKA      -0.0531
      8 C7         13.9067   -2.5161   -0.5770 C.3         1 DKA      -0.0531
      9 C8         14.9565   -3.6746   -0.5428 C.3         1 DKA      -0.0533
     10 C9         14.8689   -4.6892   -1.7164 C.3         1 DKA      -0.0559
     11 C10        16.0635   -5.6720   -1.7322 C.3         1 DKA      -0.0653
     12 O2          8.6234   -4.1092    2.1651 O.co2       1 DKA      -0.5690
     13 H1          7.5215   -1.9199    0.2382 H           1 DKA       0.0430
     14 H2          8.0875   -3.5195   -0.2316 H           1 DKA       0.0430
     15 H3         10.0542   -1.1861    0.0669 H           1 DKA       0.0283
     16 H4          9.0877   -1.3857   -1.3810 H           1 DKA       0.0283
     17 H5         11.1643   -2.3606   -1.9163 H           1 DKA       0.0266
     18 H6         10.0342   -3.6906   -1.7167 H           1 DKA       0.0266
     19 H7         11.9961   -4.4653   -0.6572 H           1 DKA       0.0265
     20 H8         10.9761   -3.9904    0.6729 H           1 DKA       0.0265
     21 H9         13.0304   -3.0850    1.3321 H           1 DKA       0.0265
     22 H10        12.2759   -1.6965    0.5848 H           1 DKA       0.0265
     23 H11        14.4162   -1.5943   -0.2761 H           1 DKA       0.0265
     24 H12        13.5596   -2.3535   -1.6008 H           1 DKA       0.0265
     25 H13        14.8849   -4.2157    0.4053 H           1 DKA       0.0265
     26 H14        15.9518   -3.2182   -0.5652 H           1 DKA       0.0265
     27 H15        14.8540   -4.1474   -2.6657 H           1 DKA       0.0263
     28 H16        13.9475   -5.2690   -1.6369 H           1 DKA       0.0263
     29 H17        15.9509   -6.3724   -2.5605 H           1 DKA       0.0230
     30 H18        16.1099   -6.2319   -0.7943 H           1 DKA       0.0230
     31 H19        16.9997   -5.1222   -1.8679 H           1 DKA       0.0230
@<TRIPOS>BOND
     1     1     2  ar
     2     1     3   1
     3     1    12  ar
     4     3     4   1
     5     4     5   1
     6     5     6   1
     7     6     7   1
     8     7     8   1
     9     8     9   1
    10     9    10   1
    11    10    11   1
    12     3    13   1
    13     3    14   1
    14     4    15   1
    15     4    16   1
    16     5    17   1
    17     5    18   1
    18     6    19   1
    19     6    20   1
    20     7    21   1
    21     7    22   1
    22     8    23   1
    23     8    24   1
    24     9    25   1
    25     9    26   1
    26    10    27   1
    27    10    28   1
    28    11    29   1
    29    11    30   1
    30    11    31   1
@<TRIPOS>SUBSTRUCTURE
     1  DKA      1

