@<TRIPOS>MOLECULE
3nq3_ligand_015
    31    30
SMALL
GAST_HUCK
****
This file was generated by PARSER (from files_GN.cpp)

@<TRIPOS>ATOM
      1 C1          3.8942   -3.1847    2.1752 C.2         1 DKA       0.0348
      2 O1          4.3034   -4.2850    2.8394 O.co2       1 DKA      -0.5690
      3 C2          4.8321   -2.4262    1.3284 C.3         1 DKA       0.0002
      4 C3          5.9108   -1.6474    2.1511 C.3         1 DKA      -0.0414
      5 C4          7.3889   -1.9338    1.7575 C.3         1 DKA      -0.0516
      6 C5          7.7648   -3.4383    1.5664 C.3         1 DKA      -0.0530
      7 C6          9.2950   -3.7541    1.4910 C.3         1 DKA      -0.0531
      8 C7          9.9474   -3.7587    0.0747 C.3         1 DKA      -0.0531
      9 C8          9.7885   -2.4922   -0.8075 C.3         1 DKA      -0.0533
     10 C9         10.3948   -1.1758   -0.2378 C.3         1 DKA      -0.0559
     11 C10        11.9203   -1.0588   -0.4515 C.3         1 DKA      -0.0653
     12 O2          2.6075   -2.7880    2.3101 O.co2       1 DKA      -0.5690
     13 H1          4.2647   -1.7115    0.7232 H           1 DKA       0.0430
     14 H2          5.2950   -3.1280    0.6285 H           1 DKA       0.0430
     15 H3          5.8011   -1.8221    3.2251 H           1 DKA       0.0283
     16 H4          5.7420   -0.5749    1.9992 H           1 DKA       0.0283
     17 H5          8.0144   -1.5051    2.5464 H           1 DKA       0.0266
     18 H6          7.5933   -1.3788    0.8410 H           1 DKA       0.0266
     19 H7          7.2862   -3.8181    0.6605 H           1 DKA       0.0265
     20 H8          7.3548   -3.9988    2.4130 H           1 DKA       0.0265
     21 H9          9.4366   -4.7645    1.8929 H           1 DKA       0.0265
     22 H10         9.8539   -3.0864    2.1553 H           1 DKA       0.0265
     23 H11         9.5303   -4.6002   -0.4861 H           1 DKA       0.0265
     24 H12        11.0148   -3.9620    0.1997 H           1 DKA       0.0265
     25 H13         8.7281   -2.3407   -1.0174 H           1 DKA       0.0265
     26 H14        10.2587   -2.6972   -1.7742 H           1 DKA       0.0265
     27 H15        10.1803   -1.0784    0.8287 H           1 DKA       0.0263
     28 H16         9.9132   -0.3318   -0.7398 H           1 DKA       0.0263
     29 H17        12.2650   -0.0795   -0.1086 H           1 DKA       0.0230
     30 H18        12.1610   -1.1612   -1.5130 H           1 DKA       0.0230
     31 H19        12.4492   -1.8324    0.1105 H           1 DKA       0.0230
@<TRIPOS>BOND
     1     1     2  ar
     2     1     3   1
     3     1    12  ar
     4     3     4   1
     5     4     5   1
     6     5     6   1
     7     6     7   1
     8     7     8   1
     9     8     9   1
    10     9    10   1
    11    10    11   1
    12     3    13   1
    13     3    14   1
    14     4    15   1
    15     4    16   1
    16     5    17   1
    17     5    18   1
    18     6    19   1
    19     6    20   1
    20     7    21   1
    21     7    22   1
    22     8    23   1
    23     8    24   1
    24     9    25   1
    25     9    26   1
    26    10    27   1
    27    10    28   1
    28    11    29   1
    29    11    30   1
    30    11    31   1
@<TRIPOS>SUBSTRUCTURE
     1  DKA      1

