@<TRIPOS>MOLECULE
3nw9_ligand_065
    62    66
SMALL
GAST_HUCK
****
This file was generated by PARSER (from files_GN.cpp)

@<TRIPOS>ATOM
      1 C1         -6.8250   14.5782   17.0847 C.3         1 MOL       0.2034
      2 C2         -5.4875   13.9001   17.4512 C.3         1 MOL       0.1402
      3 O3         -5.6390   12.6446   18.1131 O.3         1 MOL      -0.3834
      4 C4         -4.8002   14.9848   18.2958 C.3         1 MOL       0.1189
      5 O5         -5.1536   14.8796   19.6774 O.3         1 MOL      -0.3846
      6 C6         -5.3481   16.3054   17.6832 C.3         1 MOL       0.1082
      7 C7         -8.6537   12.7823   11.5051 C.3         1 MOL      -0.0106
      8 N8         -9.0832   13.4556   14.5028 N.2         1 MOL      -0.2933
      9 C9         -8.7850   13.8270   15.7584 C.2         1 MOL       0.1151
     10 N10        -7.4720   14.1123   15.8903 N.pl3       1 MOL      -0.1882
     11 C11        -6.9286   13.9287   14.6726 C.ar        1 MOL       0.1683
     12 C12        -7.9390   13.5025   13.8149 C.ar        1 MOL       0.0876
     13 O13        -6.5422   15.9740   16.9549 O.3         1 MOL      -0.3296
     14 C14        -4.4656   16.9988   16.7478 C.2         1 MOL      -0.0658
     15 C15        -4.7883   18.1805   16.1960 C.2         1 MOL      -0.0744
     16 C16        -4.0103   18.9307   15.2204 C.3         1 MOL       0.0471
     17 N17        -2.6754   18.4634   14.9766 N.am        1 MOL      -0.2802
     18 C18        -2.2947   17.5939   14.0478 C.2         1 MOL       0.1986
     19 O19        -3.1098   17.0780   13.3001 O.2         1 MOL      -0.3908
     20 C20        -0.9863   17.1221   14.0912 C.ar        1 MOL       0.0720
     21 C21        -0.7408   15.7306   14.1269 C.ar        1 MOL      -0.0533
     22 C22         0.5508   15.1895   14.3626 C.ar        1 MOL      -0.0339
     23 C23         1.6163   16.1138   14.4783 C.ar        1 MOL      -0.0299
     24 C24         0.7539   13.7711   14.5344 C.ar        1 MOL      -0.0299
     25 C25        -0.2621   12.9274   15.0588 C.ar        1 MOL      -0.0581
     26 C26        -0.0694   11.5429   15.2228 C.ar        1 MOL      -0.0288
     27 C27         1.9873   13.1470   14.2049 C.ar        1 MOL      -0.0581
     28 C28         2.1992   11.7736   14.3939 C.ar        1 MOL      -0.0288
     29 C29         1.1694   10.9610   14.8983 C.ar        1 MOL       0.1316
     30 F30         1.3564    9.6791   15.0545 F           1 MOL      -0.1840
     31 C31         0.1144   18.0066   14.1984 C.ar        1 MOL       0.1393
     32 O32        -0.0355   19.3482   14.0639 O.3         1 MOL      -0.3302
     33 C33         1.4155   17.4988   14.3704 C.ar        1 MOL       0.1232
     34 O34         2.4689   18.3515   14.4428 O.3         1 MOL      -0.3356
     35 C35        -7.6291   13.2192   12.4702 C.ar        1 MOL       0.0444
     36 N38        -6.3314   13.3682   12.0776 N.ar        1 MOL      -0.2825
     37 C39        -5.3524   13.7768   12.9269 C.ar        1 MOL       0.0619
     38 N40        -5.6597   14.0667   14.2156 N.ar        1 MOL      -0.2608
     39 H1         -7.5047   14.4732   17.9356 H           1 MOL       0.0998
     40 H2         -4.8761   13.7315   16.5667 H           1 MOL       0.0678
     41 H3         -6.1804   12.8146   18.9124 H           1 MOL       0.2101
     42 H4         -3.7083   14.9104   18.2362 H           1 MOL       0.0667
     43 H5         -6.1290   14.9764   19.7173 H           1 MOL       0.2102
     44 H6         -5.6084   17.0006   18.4902 H           1 MOL       0.0749
     45 H7         -8.2210   12.6059   10.5166 H           1 MOL       0.0446
     46 H8         -9.4210   13.5524   11.4114 H           1 MOL       0.0446
     47 H9         -9.1196   11.8564   11.8483 H           1 MOL       0.0446
     48 H10        -9.4805   13.8901   16.5010 H           1 MOL       0.1373
     49 H11        -3.6102   16.5600   16.4883 H           1 MOL       0.0477
     50 H12        -5.6638   18.5883   16.4507 H           1 MOL       0.0470
     51 H13        -3.9137   19.9553   15.5875 H           1 MOL       0.0643
     52 H14        -4.5793   18.9762   14.2868 H           1 MOL       0.0643
     53 H15        -2.0052   18.7506   15.6152 H           1 MOL       0.1864
     54 H16        -1.5336   15.0981   14.0164 H           1 MOL       0.0555
     55 H17         2.5640   15.7834   14.6633 H           1 MOL       0.0543
     56 H18        -1.1609   13.3133   15.3504 H           1 MOL       0.0601
     57 H19        -0.8250   10.9563   15.5850 H           1 MOL       0.0602
     58 H20         2.7499   13.6983   13.8100 H           1 MOL       0.0601
     59 H21         3.1045   11.3546   14.1581 H           1 MOL       0.0602
     60 H22        -0.2365   19.4706   13.1119 H           1 MOL       0.2479
     61 H23         2.9423   18.2473   13.5922 H           1 MOL       0.2443
     62 H24        -4.3918   13.8678   12.5934 H           1 MOL       0.1019
@<TRIPOS>BOND
     1     1     2   1
     2    10     1   1
     3     1    13   1
     4     2     3   1
     5     2     4   1
     6     4     5   1
     7     6     4   1
     8    13     6   1
     9     6    14   1
    10    35     7   1
    11     8     9   2
    12    12     8   1
    13    10     9   1
    14    11    10   1
    15    12    11  ar
    16    11    38  ar
    17    12    35  ar
    18    14    15   2
    19    15    16   1
    20    16    17   1
    21    17    18  am
    22    18    19   2
    23    18    20   1
    24    20    21  ar
    25    20    31  ar
    26    21    22  ar
    27    22    23  ar
    28    22    24   1
    29    23    33  ar
    30    24    25  ar
    31    24    27  ar
    32    25    26  ar
    33    26    29  ar
    34    27    28  ar
    35    28    29  ar
    36    29    30   1
    37    31    32   1
    38    31    33  ar
    39    33    34   1
    40    35    36  ar
    41    36    37  ar
    42    37    38  ar
    43     1    39   1
    44     2    40   1
    45     3    41   1
    46     4    42   1
    47     5    43   1
    48     6    44   1
    49     7    45   1
    50     7    46   1
    51     7    47   1
    52     9    48   1
    53    14    49   1
    54    15    50   1
    55    16    51   1
    56    16    52   1
    57    17    53   1
    58    21    54   1
    59    23    55   1
    60    25    56   1
    61    26    57   1
    62    27    58   1
    63    28    59   1
    64    32    60   1
    65    34    61   1
    66    37    62   1
@<TRIPOS>SUBSTRUCTURE
     1  MOL      1

