@<TRIPOS>MOLECULE
3nw9_ligand_004
    62    66
SMALL
GAST_HUCK
****
This file was generated by PARSER (from files_GN.cpp)

@<TRIPOS>ATOM
      1 C1         -4.6566   21.3080   13.8660 C.3         1 MOL       0.2034
      2 C2         -4.9807   20.5685   15.1817 C.3         1 MOL       0.1402
      3 O3         -5.9279   21.2708   15.9876 O.3         1 MOL      -0.3834
      4 C4         -3.5961   20.4039   15.8295 C.3         1 MOL       0.1189
      5 O5         -3.3015   21.4620   16.7409 O.3         1 MOL      -0.3846
      6 C6         -2.6207   20.4269   14.6207 C.3         1 MOL       0.1082
      7 C7         -8.4917   21.2123    9.0798 C.3         1 MOL      -0.0106
      8 N8         -6.6705   19.9097   11.2221 N.2         1 MOL      -0.2933
      9 C9         -5.8459   19.8253   12.2777 C.2         1 MOL       0.1151
     10 N10        -5.5764   21.0410   12.7970 N.pl3       1 MOL      -0.1882
     11 C11        -6.2713   21.9239   12.0588 C.ar        1 MOL       0.1683
     12 C12        -6.9559   21.2089   11.0751 C.ar        1 MOL       0.0876
     13 O13        -3.3501   20.8753   13.4662 O.3         1 MOL      -0.3296
     14 C14        -1.9691   19.1400   14.3939 C.2         1 MOL      -0.0658
     15 C15        -2.4461   18.1743   13.5946 C.2         1 MOL      -0.0744
     16 C16        -1.8539   16.8570   13.4520 C.3         1 MOL       0.0471
     17 N17        -2.8418   15.8460   13.6658 N.am        1 MOL      -0.2802
     18 C18        -2.6125   14.5413   13.7040 C.2         1 MOL       0.1986
     19 O19        -1.4702   14.1100   13.5815 O.2         1 MOL      -0.3908
     20 C20        -3.6596   13.6468   13.9238 C.ar        1 MOL       0.0720
     21 C21        -4.9207   13.8518   13.3021 C.ar        1 MOL      -0.0533
     22 C22        -5.9827   12.9396   13.4806 C.ar        1 MOL      -0.0339
     23 C23        -5.7928   11.8135   14.3071 C.ar        1 MOL      -0.0299
     24 C24        -7.2065   13.1022   12.7901 C.ar        1 MOL      -0.0299
     25 C25        -7.4299   12.4001   11.5851 C.ar        1 MOL      -0.0581
     26 C26        -8.6595   12.5153   10.9117 C.ar        1 MOL      -0.0288
     27 C27        -8.2324   13.9227   13.3114 C.ar        1 MOL      -0.0581
     28 C28        -9.4588   14.0452   12.6315 C.ar        1 MOL      -0.0288
     29 C29        -9.6748   13.3398   11.4318 C.ar        1 MOL       0.1316
     30 F30       -10.8151   13.4444   10.8054 F           1 MOL      -0.1840
     31 C31        -3.4972   12.5043   14.7509 C.ar        1 MOL       0.1393
     32 O32        -2.3396   12.2739   15.4233 O.3         1 MOL      -0.3302
     33 C33        -4.5598   11.5971   14.9416 C.ar        1 MOL       0.1232
     34 O34        -4.4125   10.5034   15.7281 O.3         1 MOL      -0.3356
     35 C35        -7.7494   21.9111   10.1454 C.ar        1 MOL       0.0444
     36 N38        -7.8031   23.2690   10.2542 N.ar        1 MOL      -0.2825
     37 C39        -7.1262   23.9483   11.2243 C.ar        1 MOL       0.0619
     38 N40        -6.3649   23.2752   12.1253 N.ar        1 MOL      -0.2608
     39 H1         -4.6023   22.3836   14.0636 H           1 MOL       0.0998
     40 H2         -5.3902   19.5757   14.9781 H           1 MOL       0.0678
     41 H3         -5.5432   22.1610   16.1340 H           1 MOL       0.2101
     42 H4         -3.5539   19.4690   16.3971 H           1 MOL       0.0667
     43 H5         -3.3616   22.2832   16.2116 H           1 MOL       0.2102
     44 H6         -1.8309   21.1655   14.7924 H           1 MOL       0.0749
     45 H7         -9.0777   21.9128    8.4805 H           1 MOL       0.0446
     46 H8         -9.1716   20.4828    9.5224 H           1 MOL       0.0446
     47 H9         -7.7921   20.6944    8.4220 H           1 MOL       0.0446
     48 H10        -5.4646   18.9425   12.6094 H           1 MOL       0.1373
     49 H11        -1.1548   18.9501   14.9238 H           1 MOL       0.0477
     50 H12        -3.2581   18.3520   13.0573 H           1 MOL       0.0470
     51 H13        -1.0318   16.7189   14.1535 H           1 MOL       0.0643
     52 H14        -1.4619   16.7616   12.4400 H           1 MOL       0.0643
     53 H15        -3.7556   16.1355   13.8094 H           1 MOL       0.1864
     54 H16        -5.0532   14.6511   12.6767 H           1 MOL       0.0555
     55 H17        -6.5507   11.1367   14.4420 H           1 MOL       0.0543
     56 H18        -6.7026   11.7956   11.1923 H           1 MOL       0.0601
     57 H19        -8.8125   11.9945   10.0450 H           1 MOL       0.0602
     58 H20        -8.0997   14.4249   14.1930 H           1 MOL       0.0601
     59 H21       -10.1968   14.6394   13.0175 H           1 MOL       0.0602
     60 H22        -2.4238   12.8027   16.2470 H           1 MOL       0.2479
     61 H23        -3.5920   10.0693   15.4061 H           1 MOL       0.2443
     62 H24        -7.1932   24.9658   11.2719 H           1 MOL       0.1019
@<TRIPOS>BOND
     1     1     2   1
     2    10     1   1
     3     1    13   1
     4     2     3   1
     5     2     4   1
     6     4     5   1
     7     6     4   1
     8    13     6   1
     9     6    14   1
    10    35     7   1
    11     8     9   2
    12    12     8   1
    13    10     9   1
    14    11    10   1
    15    12    11  ar
    16    11    38  ar
    17    12    35  ar
    18    14    15   2
    19    15    16   1
    20    16    17   1
    21    17    18  am
    22    18    19   2
    23    18    20   1
    24    20    21  ar
    25    20    31  ar
    26    21    22  ar
    27    22    23  ar
    28    22    24   1
    29    23    33  ar
    30    24    25  ar
    31    24    27  ar
    32    25    26  ar
    33    26    29  ar
    34    27    28  ar
    35    28    29  ar
    36    29    30   1
    37    31    32   1
    38    31    33  ar
    39    33    34   1
    40    35    36  ar
    41    36    37  ar
    42    37    38  ar
    43     1    39   1
    44     2    40   1
    45     3    41   1
    46     4    42   1
    47     5    43   1
    48     6    44   1
    49     7    45   1
    50     7    46   1
    51     7    47   1
    52     9    48   1
    53    14    49   1
    54    15    50   1
    55    16    51   1
    56    16    52   1
    57    17    53   1
    58    21    54   1
    59    23    55   1
    60    25    56   1
    61    26    57   1
    62    27    58   1
    63    28    59   1
    64    32    60   1
    65    34    61   1
    66    37    62   1
@<TRIPOS>SUBSTRUCTURE
     1  MOL      1

