@<TRIPOS>MOLECULE
3nw9_ligand_024
    62    66
SMALL
GAST_HUCK
****
This file was generated by PARSER (from files_GN.cpp)

@<TRIPOS>ATOM
      1 C1         -5.8064   19.9759   13.5430 C.3         1 MOL       0.2034
      2 C2         -5.9411   21.4905   13.2312 C.3         1 MOL       0.1402
      3 O3         -6.4784   21.6787   11.9128 O.3         1 MOL      -0.3834
      4 C4         -4.4845   21.9664   13.2935 C.3         1 MOL       0.1189
      5 O5         -4.2381   23.1543   12.5409 O.3         1 MOL      -0.3846
      6 C6         -3.7422   20.7382   12.7101 C.3         1 MOL       0.1082
      7 C7         -6.3407   18.8522   19.5602 C.3         1 MOL      -0.0106
      8 N8         -5.2364   18.3530   16.7341 N.2         1 MOL      -0.2933
      9 C9         -5.0466   18.5129   15.4158 C.2         1 MOL       0.1151
     10 N10        -5.7486   19.5688   14.9294 N.pl3       1 MOL      -0.1882
     11 C11        -6.4388   20.0651   15.9789 C.ar        1 MOL       0.1683
     12 C12        -6.0942   19.3126   17.1001 C.ar        1 MOL       0.0876
     13 O13        -4.6001   19.5890   12.8578 O.3         1 MOL      -0.3296
     14 C14        -2.4143   20.4665   13.2394 C.2         1 MOL      -0.0658
     15 C15        -2.1268   20.3736   14.5523 C.2         1 MOL      -0.0744
     16 C16        -0.9120   19.7740   15.0519 C.3         1 MOL       0.0471
     17 N17        -1.0108   18.3727   14.8108 N.am        1 MOL      -0.2802
     18 C18        -0.1709   17.5939   14.1469 C.2         1 MOL       0.1986
     19 O19         0.9346   17.9835   13.7919 O.2         1 MOL      -0.3908
     20 C20        -0.5651   16.2894   13.9058 C.ar        1 MOL       0.0720
     21 C21         0.2379   15.2149   14.3492 C.ar        1 MOL      -0.0533
     22 C22        -0.1871   13.8687   14.2215 C.ar        1 MOL      -0.0339
     23 C23        -1.4316   13.6216   13.5972 C.ar        1 MOL      -0.0299
     24 C24         0.6039   12.8021   14.7470 C.ar        1 MOL      -0.0299
     25 C25         0.0114   11.7381   15.4757 C.ar        1 MOL      -0.0581
     26 C26         0.7975   10.7102   16.0268 C.ar        1 MOL      -0.0288
     27 C27         2.0130   12.7907   14.5821 C.ar        1 MOL      -0.0581
     28 C28         2.7990   11.7662   15.1395 C.ar        1 MOL      -0.0288
     29 C29         2.1931   10.7261   15.8644 C.ar        1 MOL       0.1316
     30 F30         2.9215    9.7776   16.3887 F           1 MOL      -0.1840
     31 C31        -1.8066   16.0076   13.2753 C.ar        1 MOL       0.1393
     32 O32        -2.6036   16.9964   12.7865 O.3         1 MOL      -0.3302
     33 C33        -2.2310   14.6733   13.1142 C.ar        1 MOL       0.1232
     34 O34        -3.3967   14.3738   12.4830 O.3         1 MOL      -0.3356
     35 C35        -6.6501   19.6369   18.3523 C.ar        1 MOL       0.0444
     36 N38        -7.5004   20.6997   18.4052 N.ar        1 MOL      -0.2825
     37 C39        -7.8470   21.4159   17.2952 C.ar        1 MOL       0.0619
     38 N40        -7.3179   21.0962   16.0852 N.ar        1 MOL      -0.2608
     39 H1         -6.6454   19.4374   13.0892 H           1 MOL       0.0998
     40 H2         -6.5653   22.0338   13.9433 H           1 MOL       0.0678
     41 H3         -7.4442   21.5351   12.0045 H           1 MOL       0.2101
     42 H4         -4.2070   22.1411   14.3406 H           1 MOL       0.0667
     43 H5         -4.1105   23.8652   13.2050 H           1 MOL       0.2102
     44 H6         -3.6507   20.8905   11.6285 H           1 MOL       0.0749
     45 H7         -6.8263   19.2822   20.4377 H           1 MOL       0.0446
     46 H8         -5.2629   18.8340   19.7289 H           1 MOL       0.0446
     47 H9         -6.6963   17.8287   19.4276 H           1 MOL       0.0446
     48 H10        -4.4470   17.8968   14.8630 H           1 MOL       0.1373
     49 H11        -1.6939   20.2472   12.5843 H           1 MOL       0.0477
     50 H12        -2.8349   20.6104   15.2160 H           1 MOL       0.0470
     51 H13        -0.8511   19.9225   16.1323 H           1 MOL       0.0643
     52 H14        -0.0351   20.2402   14.5894 H           1 MOL       0.0643
     53 H15        -1.8151   17.9430   15.1495 H           1 MOL       0.1864
     54 H16         1.1161   15.4243   14.8342 H           1 MOL       0.0555
     55 H17        -1.7543   12.6580   13.4591 H           1 MOL       0.0543
     56 H18        -0.9991   11.7159   15.6335 H           1 MOL       0.0601
     57 H19         0.3487    9.9587   16.5578 H           1 MOL       0.0602
     58 H20         2.4810   13.5286   14.0507 H           1 MOL       0.0601
     59 H21         3.8140   11.7888   15.0163 H           1 MOL       0.0602
     60 H22        -1.9956   17.6660   12.4050 H           1 MOL       0.2479
     61 H23        -3.4259   14.9472   11.6872 H           1 MOL       0.2443
     62 H24        -8.4925   22.2036   17.3770 H           1 MOL       0.1019
@<TRIPOS>BOND
     1     1     2   1
     2    10     1   1
     3     1    13   1
     4     2     3   1
     5     2     4   1
     6     4     5   1
     7     6     4   1
     8    13     6   1
     9     6    14   1
    10    35     7   1
    11     8     9   2
    12    12     8   1
    13    10     9   1
    14    11    10   1
    15    12    11  ar
    16    11    38  ar
    17    12    35  ar
    18    14    15   2
    19    15    16   1
    20    16    17   1
    21    17    18  am
    22    18    19   2
    23    18    20   1
    24    20    21  ar
    25    20    31  ar
    26    21    22  ar
    27    22    23  ar
    28    22    24   1
    29    23    33  ar
    30    24    25  ar
    31    24    27  ar
    32    25    26  ar
    33    26    29  ar
    34    27    28  ar
    35    28    29  ar
    36    29    30   1
    37    31    32   1
    38    31    33  ar
    39    33    34   1
    40    35    36  ar
    41    36    37  ar
    42    37    38  ar
    43     1    39   1
    44     2    40   1
    45     3    41   1
    46     4    42   1
    47     5    43   1
    48     6    44   1
    49     7    45   1
    50     7    46   1
    51     7    47   1
    52     9    48   1
    53    14    49   1
    54    15    50   1
    55    16    51   1
    56    16    52   1
    57    17    53   1
    58    21    54   1
    59    23    55   1
    60    25    56   1
    61    26    57   1
    62    27    58   1
    63    28    59   1
    64    32    60   1
    65    34    61   1
    66    37    62   1
@<TRIPOS>SUBSTRUCTURE
     1  MOL      1

