@<TRIPOS>MOLECULE
3nw9_ligand_073
    62    66
SMALL
GAST_HUCK
****
This file was generated by PARSER (from files_GN.cpp)

@<TRIPOS>ATOM
      1 C1         -6.0059   12.7218   15.1754 C.3         1 MOL       0.2034
      2 C2         -6.3889   12.8115   13.6666 C.3         1 MOL       0.1402
      3 O3         -7.1600   11.6766   13.2650 O.3         1 MOL      -0.3834
      4 C4         -5.0413   12.9063   12.9369 C.3         1 MOL       0.1189
      5 O5         -5.0144   12.2327   11.6817 O.3         1 MOL      -0.3846
      6 C6         -4.0429   12.3445   13.9652 C.3         1 MOL       0.1082
      7 C7         -9.1651   16.9697   18.3139 C.3         1 MOL      -0.0106
      8 N8         -6.8451   14.9612   17.8942 N.2         1 MOL      -0.2933
      9 C9         -6.0824   14.0382   17.2816 C.2         1 MOL       0.1151
     10 N10        -6.5983   13.6860   16.0769 N.pl3       1 MOL      -0.1882
     11 C11        -7.7564   14.3694   15.9634 C.ar        1 MOL       0.1683
     12 C12        -7.8863   15.1847   17.0811 C.ar        1 MOL       0.0876
     13 O13        -4.5679   12.8260   15.2086 O.3         1 MOL      -0.3296
     14 C14        -2.6746   12.7965   13.7634 C.2         1 MOL      -0.0658
     15 C15        -1.6662   12.4747   14.5895 C.2         1 MOL      -0.0744
     16 C16        -0.3189   12.9876   14.4089 C.3         1 MOL       0.0471
     17 N17        -0.3035   14.4219   14.4229 N.am        1 MOL      -0.2802
     18 C18         0.7126   15.2031   14.0650 C.2         1 MOL       0.1986
     19 O19         1.7566   14.6575   13.7218 O.2         1 MOL      -0.3908
     20 C20         0.6339   16.6100   14.1205 C.ar        1 MOL       0.0720
     21 C21        -0.6307   17.2644   14.1640 C.ar        1 MOL      -0.0533
     22 C22        -0.7617   18.6689   14.2495 C.ar        1 MOL      -0.0339
     23 C23         0.4118   19.4488   14.3065 C.ar        1 MOL      -0.0299
     24 C24        -2.0503   19.2912   14.2733 C.ar        1 MOL      -0.0299
     25 C25        -2.3121   20.3949   15.1183 C.ar        1 MOL      -0.0581
     26 C26        -3.5862   20.9954   15.1501 C.ar        1 MOL      -0.0288
     27 C27        -3.0984   18.8120   13.4509 C.ar        1 MOL      -0.0581
     28 C28        -4.3726   19.4161   13.4742 C.ar        1 MOL      -0.0288
     29 C29        -4.6161   20.5058   14.3249 C.ar        1 MOL       0.1316
     30 F30        -5.7969   21.0658   14.3536 F           1 MOL      -0.1840
     31 C31         1.7897   17.4402   14.1345 C.ar        1 MOL       0.1393
     32 O32         3.0415   16.9118   14.0371 O.3         1 MOL      -0.3302
     33 C33         1.6768   18.8439   14.2512 C.ar        1 MOL       0.1232
     34 O34         2.7724   19.6433   14.3123 O.3         1 MOL      -0.3356
     35 C35        -8.9941   16.0566   17.1736 C.ar        1 MOL       0.0444
     36 N38        -9.9024   16.0440   16.1579 N.ar        1 MOL      -0.2825
     37 C39        -9.7759   15.2207   15.0817 C.ar        1 MOL       0.0619
     38 N40        -8.7099   14.3891   14.9892 N.ar        1 MOL      -0.2608
     39 H1         -6.2649   11.7295   15.5629 H           1 MOL       0.0998
     40 H2         -6.9503   13.7104   13.4088 H           1 MOL       0.0678
     41 H3         -8.0236   11.7750   13.7235 H           1 MOL       0.2101
     42 H4         -4.8234   13.9684   12.7537 H           1 MOL       0.0667
     43 H5         -5.0256   11.2754   11.8971 H           1 MOL       0.2102
     44 H6         -4.0665   11.2486   13.9515 H           1 MOL       0.0749
     45 H7        -10.0644   17.5745   18.1879 H           1 MOL       0.0446
     46 H8         -8.3037   17.6358   18.3815 H           1 MOL       0.0446
     47 H9         -9.2533   16.3948   19.2377 H           1 MOL       0.0446
     48 H10        -5.2177   13.6691   17.6859 H           1 MOL       0.1373
     49 H11        -2.4794   13.3857   12.9848 H           1 MOL       0.0477
     50 H12        -1.8448   11.8751   15.3637 H           1 MOL       0.0470
     51 H13         0.0731   12.6150   13.4566 H           1 MOL       0.0643
     52 H14         0.3236   12.6191   15.2105 H           1 MOL       0.0643
     53 H15        -1.1117   14.8600   14.7286 H           1 MOL       0.1864
     54 H16        -1.4852   16.7052   14.1352 H           1 MOL       0.0555
     55 H17         0.3562   20.4692   14.3548 H           1 MOL       0.0543
     56 H18        -1.5845   20.7639   15.7377 H           1 MOL       0.0601
     57 H19        -3.7596   21.7831   15.7769 H           1 MOL       0.0602
     58 H20        -2.9448   18.0239   12.8197 H           1 MOL       0.0601
     59 H21        -5.1157   19.0525   12.8708 H           1 MOL       0.0602
     60 H22         3.4909   17.4522   13.3574 H           1 MOL       0.2479
     61 H23         3.1878   19.5619   13.4317 H           1 MOL       0.2443
     62 H24       -10.4660   15.2438   14.3305 H           1 MOL       0.1019
@<TRIPOS>BOND
     1     1     2   1
     2    10     1   1
     3     1    13   1
     4     2     3   1
     5     2     4   1
     6     4     5   1
     7     6     4   1
     8    13     6   1
     9     6    14   1
    10    35     7   1
    11     8     9   2
    12    12     8   1
    13    10     9   1
    14    11    10   1
    15    12    11  ar
    16    11    38  ar
    17    12    35  ar
    18    14    15   2
    19    15    16   1
    20    16    17   1
    21    17    18  am
    22    18    19   2
    23    18    20   1
    24    20    21  ar
    25    20    31  ar
    26    21    22  ar
    27    22    23  ar
    28    22    24   1
    29    23    33  ar
    30    24    25  ar
    31    24    27  ar
    32    25    26  ar
    33    26    29  ar
    34    27    28  ar
    35    28    29  ar
    36    29    30   1
    37    31    32   1
    38    31    33  ar
    39    33    34   1
    40    35    36  ar
    41    36    37  ar
    42    37    38  ar
    43     1    39   1
    44     2    40   1
    45     3    41   1
    46     4    42   1
    47     5    43   1
    48     6    44   1
    49     7    45   1
    50     7    46   1
    51     7    47   1
    52     9    48   1
    53    14    49   1
    54    15    50   1
    55    16    51   1
    56    16    52   1
    57    17    53   1
    58    21    54   1
    59    23    55   1
    60    25    56   1
    61    26    57   1
    62    27    58   1
    63    28    59   1
    64    32    60   1
    65    34    61   1
    66    37    62   1
@<TRIPOS>SUBSTRUCTURE
     1  MOL      1

