@<TRIPOS>MOLECULE
3nw9_ligand_066
    62    66
SMALL
GAST_HUCK
****
This file was generated by PARSER (from files_GN.cpp)

@<TRIPOS>ATOM
      1 C1         -4.1481   20.4726   12.7753 C.3         1 MOL       0.2034
      2 C2         -4.2243   20.7560   14.2818 C.3         1 MOL       0.1402
      3 O3         -4.4248   22.1436   14.5386 O.3         1 MOL      -0.3834
      4 C4         -2.8755   20.1804   14.7520 C.3         1 MOL       0.1189
      5 O5         -1.8414   21.1644   14.6783 O.3         1 MOL      -0.3846
      6 C6         -2.5951   19.0413   13.7278 C.3         1 MOL       0.1082
      7 C7         -9.0652   21.7095    9.3590 C.3         1 MOL      -0.0106
      8 N8         -7.5166   20.1546   11.5434 N.2         1 MOL      -0.2933
      9 C9         -6.4928   19.8009   12.3431 C.2         1 MOL       0.1151
     10 N10        -5.4130   20.5722   12.1171 N.pl3       1 MOL      -0.1882
     11 C11        -5.7555   21.4470   11.1549 C.ar        1 MOL       0.1683
     12 C12        -7.0737   21.1794   10.8001 C.ar        1 MOL       0.0876
     13 O13        -3.6124   19.1461   12.7107 O.3         1 MOL      -0.3296
     14 C14        -2.5604   17.6829   14.2672 C.2         1 MOL      -0.0658
     15 C15        -2.4302   16.6079   13.4805 C.2         1 MOL      -0.0744
     16 C16        -2.3823   15.2470   13.9782 C.3         1 MOL       0.0471
     17 N17        -3.5110   14.5024   13.5211 N.am        1 MOL      -0.2802
     18 C18        -4.5974   14.1778   14.2165 C.2         1 MOL       0.1986
     19 O19        -4.7124   14.6304   15.3528 O.2         1 MOL      -0.3908
     20 C20        -5.6078   13.3586   13.6869 C.ar        1 MOL       0.0720
     21 C21        -5.3499   12.5196   12.5726 C.ar        1 MOL      -0.0533
     22 C22        -6.3355   11.6793   12.0011 C.ar        1 MOL      -0.0339
     23 C23        -7.6340   11.6922   12.5598 C.ar        1 MOL      -0.0299
     24 C24        -6.0313   10.8567   10.8819 C.ar        1 MOL      -0.0299
     25 C25        -4.9081    9.9980   10.8991 C.ar        1 MOL      -0.0581
     26 C26        -4.6075    9.1782    9.7991 C.ar        1 MOL      -0.0288
     27 C27        -6.8383   10.8901    9.7212 C.ar        1 MOL      -0.0581
     28 C28        -6.5282   10.0888    8.6046 C.ar        1 MOL      -0.0288
     29 C29        -5.4177    9.2223    8.6456 C.ar        1 MOL       0.1316
     30 F30        -5.1408    8.4642    7.6227 F           1 MOL      -0.1840
     31 C31        -6.9203   13.2988   14.2523 C.ar        1 MOL       0.1393
     32 O32        -7.2661   14.0553   15.3244 O.3         1 MOL      -0.3302
     33 C33        -7.9206   12.4865   13.6778 C.ar        1 MOL       0.1232
     34 O34        -9.1697   12.4591   14.2054 O.3         1 MOL      -0.3356
     35 C35        -7.6849   21.9592    9.8032 C.ar        1 MOL       0.0444
     36 N38        -6.9465   22.9610    9.2398 N.ar        1 MOL      -0.2825
     37 C39        -5.6548   23.2034    9.5980 C.ar        1 MOL       0.0619
     38 N40        -5.0592   22.4455   10.5568 N.ar        1 MOL      -0.2608
     39 H1         -3.4305   21.1608   12.3153 H           1 MOL       0.0998
     40 H2         -5.0457   20.1957   14.7407 H           1 MOL       0.0678
     41 H3         -4.4257   22.2331   15.5091 H           1 MOL       0.2101
     42 H4         -2.9481   19.8391   15.7872 H           1 MOL       0.0667
     43 H5         -2.1602   21.9178   15.2170 H           1 MOL       0.2102
     44 H6         -1.6302   19.2150   13.2440 H           1 MOL       0.0749
     45 H7         -9.3509   22.4041    8.5662 H           1 MOL       0.0446
     46 H8         -9.7555   21.8314   10.1949 H           1 MOL       0.0446
     47 H9         -9.1437   20.6917    8.9750 H           1 MOL       0.0446
     48 H10        -6.5357   19.0467   13.0295 H           1 MOL       0.1373
     49 H11        -2.6057   17.5653   15.2589 H           1 MOL       0.0477
     50 H12        -2.3604   16.7262   12.4895 H           1 MOL       0.0470
     51 H13        -2.3014   15.2192   15.0672 H           1 MOL       0.0643
     52 H14        -1.4740   14.7661   13.5944 H           1 MOL       0.0643
     53 H15        -3.4765   14.2155   12.5928 H           1 MOL       0.1864
     54 H16        -4.4131   12.5112   12.1561 H           1 MOL       0.0555
     55 H17        -8.3754   11.0993   12.1685 H           1 MOL       0.0543
     56 H18        -4.3076    9.9424   11.7300 H           1 MOL       0.0601
     57 H19        -3.7957    8.5560    9.8328 H           1 MOL       0.0602
     58 H20        -7.6494   11.5128    9.6640 H           1 MOL       0.0601
     59 H21        -7.1126   10.1348    7.7688 H           1 MOL       0.0602
     60 H22        -7.8875   13.5133   15.8460 H           1 MOL       0.2479
     61 H23        -9.7006   13.0463   13.6292 H           1 MOL       0.2443
     62 H24        -5.1331   23.9569    9.1477 H           1 MOL       0.1019
@<TRIPOS>BOND
     1     1     2   1
     2    10     1   1
     3     1    13   1
     4     2     3   1
     5     2     4   1
     6     4     5   1
     7     6     4   1
     8    13     6   1
     9     6    14   1
    10    35     7   1
    11     8     9   2
    12    12     8   1
    13    10     9   1
    14    11    10   1
    15    12    11  ar
    16    11    38  ar
    17    12    35  ar
    18    14    15   2
    19    15    16   1
    20    16    17   1
    21    17    18  am
    22    18    19   2
    23    18    20   1
    24    20    21  ar
    25    20    31  ar
    26    21    22  ar
    27    22    23  ar
    28    22    24   1
    29    23    33  ar
    30    24    25  ar
    31    24    27  ar
    32    25    26  ar
    33    26    29  ar
    34    27    28  ar
    35    28    29  ar
    36    29    30   1
    37    31    32   1
    38    31    33  ar
    39    33    34   1
    40    35    36  ar
    41    36    37  ar
    42    37    38  ar
    43     1    39   1
    44     2    40   1
    45     3    41   1
    46     4    42   1
    47     5    43   1
    48     6    44   1
    49     7    45   1
    50     7    46   1
    51     7    47   1
    52     9    48   1
    53    14    49   1
    54    15    50   1
    55    16    51   1
    56    16    52   1
    57    17    53   1
    58    21    54   1
    59    23    55   1
    60    25    56   1
    61    26    57   1
    62    27    58   1
    63    28    59   1
    64    32    60   1
    65    34    61   1
    66    37    62   1
@<TRIPOS>SUBSTRUCTURE
     1  MOL      1

