@<TRIPOS>MOLECULE
3nw9_ligand_009
    62    66
SMALL
GAST_HUCK
****
This file was generated by PARSER (from files_GN.cpp)

@<TRIPOS>ATOM
      1 C1         -4.6242   21.3004   13.8419 C.3         1 MOL       0.2034
      2 C2         -4.7660   20.4945   15.1558 C.3         1 MOL       0.1402
      3 O3         -5.5277   21.1917   16.1445 O.3         1 MOL      -0.3834
      4 C4         -3.3071   20.2173   15.5650 C.3         1 MOL       0.1189
      5 O5         -2.7998   21.2207   16.4444 O.3         1 MOL      -0.3846
      6 C6         -2.5407   20.2434   14.2147 C.3         1 MOL       0.1082
      7 C7         -8.6473   21.2850    9.2158 C.3         1 MOL      -0.0106
      8 N8         -6.8278   19.9441   11.3235 N.2         1 MOL      -0.2933
      9 C9         -5.9647   19.8308   12.3464 C.2         1 MOL       0.1151
     10 N10        -5.6273   21.0441   12.8431 N.pl3       1 MOL      -0.1882
     11 C11        -6.3123   21.9511   12.1246 C.ar        1 MOL       0.1683
     12 C12        -7.0594   21.2566   11.1734 C.ar        1 MOL       0.0876
     13 O13        -3.3383   20.9924   13.2766 O.3         1 MOL      -0.3296
     14 C14        -2.2635   18.9356   13.6345 C.2         1 MOL      -0.0658
     15 C15        -1.3772   18.0611   14.1431 C.2         1 MOL      -0.0744
     16 C16        -0.9701   16.8513   13.4473 C.3         1 MOL       0.0471
     17 N17        -1.0670   15.6977   14.2809 N.am        1 MOL      -0.2802
     18 C18        -1.8595   14.6536   14.1049 C.2         1 MOL       0.1986
     19 O19        -2.6444   14.5635   13.1599 O.2         1 MOL      -0.3908
     20 C20        -1.9073   13.6801   15.0823 C.ar        1 MOL       0.0720
     21 C21        -0.9069   12.6780   15.1504 C.ar        1 MOL      -0.0533
     22 C22        -1.0152   11.6203   16.0823 C.ar        1 MOL      -0.0339
     23 C23        -2.1155   11.5989   16.9704 C.ar        1 MOL      -0.0299
     24 C24        -0.0731   10.5665   16.0971 C.ar        1 MOL      -0.0299
     25 C25        -0.4847    9.2413   15.8278 C.ar        1 MOL      -0.0581
     26 C26         0.4515    8.1924   15.8241 C.ar        1 MOL      -0.0288
     27 C27         1.2877   10.8229   16.3759 C.ar        1 MOL      -0.0581
     28 C28         2.2181    9.7645   16.3946 C.ar        1 MOL      -0.0288
     29 C29         1.8023    8.4507   16.1148 C.ar        1 MOL       0.1316
     30 F30         2.6620    7.4787   16.1202 F           1 MOL      -0.1840
     31 C31        -2.9890   13.6476   15.9938 C.ar        1 MOL       0.1393
     32 O32        -3.9434   14.6117   15.9904 O.3         1 MOL      -0.3302
     33 C33        -3.0886   12.6124   16.9392 C.ar        1 MOL       0.1232
     34 O34        -4.1070   12.5767   17.8364 O.3         1 MOL      -0.3356
     35 C35        -7.8429   21.9706   10.2441 C.ar        1 MOL       0.0444
     36 N38        -7.8263   23.3305   10.3196 N.ar        1 MOL      -0.2825
     37 C39        -7.0964   23.9971   11.2543 C.ar        1 MOL       0.0619
     38 N40        -6.3430   23.3097   12.1563 N.ar        1 MOL      -0.2608
     39 H1         -4.5905   22.3692   14.0867 H           1 MOL       0.0998
     40 H2         -5.2637   19.5398   14.9759 H           1 MOL       0.0678
     41 H3         -5.1188   22.0818   16.2311 H           1 MOL       0.2101
     42 H4         -3.2251   19.2538   16.0750 H           1 MOL       0.0667
     43 H5         -2.8757   22.0614   15.9459 H           1 MOL       0.2102
     44 H6         -1.5958   20.7767   14.3239 H           1 MOL       0.0749
     45 H7         -9.1784   22.0038    8.5927 H           1 MOL       0.0446
     46 H8         -9.3773   20.6351    9.7011 H           1 MOL       0.0446
     47 H9         -7.9952   20.6834    8.5804 H           1 MOL       0.0446
     48 H10        -5.5919   18.9356   12.6666 H           1 MOL       0.1373
     49 H11        -2.7159   18.7075   12.7777 H           1 MOL       0.0477
     50 H12        -0.9018   18.2938   14.9900 H           1 MOL       0.0470
     51 H13         0.0839   16.9588   13.1788 H           1 MOL       0.0643
     52 H14        -1.5234   16.7137   12.5114 H           1 MOL       0.0643
     53 H15        -0.5322   15.7019   15.0862 H           1 MOL       0.1864
     54 H16        -0.1265   12.6860   14.4828 H           1 MOL       0.0555
     55 H17        -2.2159   10.8385   17.6523 H           1 MOL       0.0543
     56 H18        -1.4656    9.0340   15.6114 H           1 MOL       0.0601
     57 H19         0.1435    7.2399   15.6054 H           1 MOL       0.0602
     58 H20         1.6072   11.7730   16.5807 H           1 MOL       0.0601
     59 H21         3.1978    9.9625   16.6155 H           1 MOL       0.0602
     60 H22        -3.4579   15.4462   16.2380 H           1 MOL       0.2479
     61 H23        -4.9263   12.7395   17.3091 H           1 MOL       0.2443
     62 H24        -7.1109   25.0159   11.2763 H           1 MOL       0.1019
@<TRIPOS>BOND
     1     1     2   1
     2    10     1   1
     3     1    13   1
     4     2     3   1
     5     2     4   1
     6     4     5   1
     7     6     4   1
     8    13     6   1
     9     6    14   1
    10    35     7   1
    11     8     9   2
    12    12     8   1
    13    10     9   1
    14    11    10   1
    15    12    11  ar
    16    11    38  ar
    17    12    35  ar
    18    14    15   2
    19    15    16   1
    20    16    17   1
    21    17    18  am
    22    18    19   2
    23    18    20   1
    24    20    21  ar
    25    20    31  ar
    26    21    22  ar
    27    22    23  ar
    28    22    24   1
    29    23    33  ar
    30    24    25  ar
    31    24    27  ar
    32    25    26  ar
    33    26    29  ar
    34    27    28  ar
    35    28    29  ar
    36    29    30   1
    37    31    32   1
    38    31    33  ar
    39    33    34   1
    40    35    36  ar
    41    36    37  ar
    42    37    38  ar
    43     1    39   1
    44     2    40   1
    45     3    41   1
    46     4    42   1
    47     5    43   1
    48     6    44   1
    49     7    45   1
    50     7    46   1
    51     7    47   1
    52     9    48   1
    53    14    49   1
    54    15    50   1
    55    16    51   1
    56    16    52   1
    57    17    53   1
    58    21    54   1
    59    23    55   1
    60    25    56   1
    61    26    57   1
    62    27    58   1
    63    28    59   1
    64    32    60   1
    65    34    61   1
    66    37    62   1
@<TRIPOS>SUBSTRUCTURE
     1  MOL      1

