@<TRIPOS>MOLECULE
3nw9_ligand_077
    62    66
SMALL
GAST_HUCK
****
This file was generated by PARSER (from files_GN.cpp)

@<TRIPOS>ATOM
      1 C1          0.4144   14.2957   13.9067 C.3         1 MOL       0.2034
      2 C2          1.6366   14.4036   14.8438 C.3         1 MOL       0.1402
      3 O3          2.7467   15.0470   14.2210 O.3         1 MOL      -0.3834
      4 C4          1.9041   12.9453   15.2298 C.3         1 MOL       0.1189
      5 O5          2.7280   12.2920   14.2672 O.3         1 MOL      -0.3846
      6 C6          0.4787   12.3431   15.2330 C.3         1 MOL       0.1082
      7 C7         -4.0946   18.4217   13.3565 C.3         1 MOL      -0.0106
      8 N8         -1.1697   17.5615   13.9262 N.2         1 MOL      -0.2933
      9 C9         -0.1081   16.7492   14.0764 C.2         1 MOL       0.1151
     10 N10        -0.4431   15.4552   13.8596 N.pl3       1 MOL      -0.1882
     11 C11        -1.7461   15.4595   13.5200 C.ar        1 MOL       0.1683
     12 C12        -2.1958   16.7760   13.5806 C.ar        1 MOL       0.0876
     13 O13        -0.3144   13.1362   14.3452 O.3         1 MOL      -0.3296
     14 C14        -0.1457   12.4050   16.5462 C.2         1 MOL      -0.0658
     15 C15        -0.7988   11.3903   17.1331 C.2         1 MOL      -0.0744
     16 C16        -1.3494   11.5025   18.4769 C.3         1 MOL       0.0471
     17 N17        -2.2691   12.5972   18.5788 N.am        1 MOL      -0.2802
     18 C18        -2.7415   13.1025   19.7096 C.2         1 MOL       0.1986
     19 O19        -2.4339   12.6585   20.8067 O.2         1 MOL      -0.3908
     20 C20        -3.4356   14.2941   19.6594 C.ar        1 MOL       0.0720
     21 C21        -4.7582   14.3213   19.1662 C.ar        1 MOL      -0.0533
     22 C22        -5.5074   15.5185   19.1837 C.ar        1 MOL      -0.0339
     23 C23        -4.9078   16.7035   19.6610 C.ar        1 MOL      -0.0299
     24 C24        -6.8587   15.5172   18.7641 C.ar        1 MOL      -0.0299
     25 C25        -7.1931   15.3266   17.4031 C.ar        1 MOL      -0.0581
     26 C26        -8.5423   15.3162   16.9974 C.ar        1 MOL      -0.0288
     27 C27        -7.8942   15.6796   19.7112 C.ar        1 MOL      -0.0581
     28 C28        -9.2422   15.6500   19.3079 C.ar        1 MOL      -0.0288
     29 C29        -9.5667   15.4731   17.9486 C.ar        1 MOL       0.1316
     30 F30       -10.8185   15.4407   17.5775 F           1 MOL      -0.1840
     31 C31        -2.8460   15.4876   20.1387 C.ar        1 MOL       0.1393
     32 O32        -1.5666   15.4768   20.5998 O.3         1 MOL      -0.3302
     33 C33        -3.5786   16.6929   20.1244 C.ar        1 MOL       0.1232
     34 O34        -2.9874   17.8421   20.5408 O.3         1 MOL      -0.3356
     35 C35        -3.5450   17.0559   13.2863 C.ar        1 MOL       0.0444
     36 N38        -4.3418   16.0072   12.9357 N.ar        1 MOL      -0.2825
     37 C39        -3.8857   14.7277   12.8672 C.ar        1 MOL       0.0619
     38 N40        -2.5872   14.4545   13.1651 N.ar        1 MOL      -0.2608
     39 H1          0.7613   14.0890   12.8900 H           1 MOL       0.0998
     40 H2          1.3680   14.9722   15.7382 H           1 MOL       0.0678
     41 H3          3.4868   14.9206   14.8474 H           1 MOL       0.2101
     42 H4          2.4007   12.8741   16.2050 H           1 MOL       0.0667
     43 H5          3.6041   12.7048   14.4140 H           1 MOL       0.2102
     44 H6          0.5074   11.3154   14.8542 H           1 MOL       0.0749
     45 H7         -5.1421   18.4316   13.0507 H           1 MOL       0.0446
     46 H8         -3.5354   19.0879   12.6986 H           1 MOL       0.0446
     47 H9         -4.0276   18.7941   14.3799 H           1 MOL       0.0446
     48 H10         0.8219   17.0875   14.3266 H           1 MOL       0.1373
     49 H11        -0.1052   13.2770   17.0198 H           1 MOL       0.0477
     50 H12        -0.8938   10.5248   16.6499 H           1 MOL       0.0470
     51 H13        -0.5077   11.6686   19.1683 H           1 MOL       0.0643
     52 H14        -1.8424   10.5772   18.7581 H           1 MOL       0.0643
     53 H15        -2.4816   13.0830   17.7641 H           1 MOL       0.1864
     54 H16        -5.1964   13.4532   18.8415 H           1 MOL       0.0555
     55 H17        -5.4295   17.5831   19.6587 H           1 MOL       0.0543
     56 H18        -6.4603   15.2037   16.6999 H           1 MOL       0.0601
     57 H19        -8.7735   15.1837   16.0091 H           1 MOL       0.0602
     58 H20        -7.6770   15.8000   20.7048 H           1 MOL       0.0601
     59 H21        -9.9832   15.7475   20.0053 H           1 MOL       0.0602
     60 H22        -1.6024   15.9252   21.4684 H           1 MOL       0.2479
     61 H23        -3.6755   18.3491   21.0194 H           1 MOL       0.2443
     62 H24        -4.5180   13.9734   12.5946 H           1 MOL       0.1019
@<TRIPOS>BOND
     1     1     2   1
     2    10     1   1
     3     1    13   1
     4     2     3   1
     5     2     4   1
     6     4     5   1
     7     6     4   1
     8    13     6   1
     9     6    14   1
    10    35     7   1
    11     8     9   2
    12    12     8   1
    13    10     9   1
    14    11    10   1
    15    12    11  ar
    16    11    38  ar
    17    12    35  ar
    18    14    15   2
    19    15    16   1
    20    16    17   1
    21    17    18  am
    22    18    19   2
    23    18    20   1
    24    20    21  ar
    25    20    31  ar
    26    21    22  ar
    27    22    23  ar
    28    22    24   1
    29    23    33  ar
    30    24    25  ar
    31    24    27  ar
    32    25    26  ar
    33    26    29  ar
    34    27    28  ar
    35    28    29  ar
    36    29    30   1
    37    31    32   1
    38    31    33  ar
    39    33    34   1
    40    35    36  ar
    41    36    37  ar
    42    37    38  ar
    43     1    39   1
    44     2    40   1
    45     3    41   1
    46     4    42   1
    47     5    43   1
    48     6    44   1
    49     7    45   1
    50     7    46   1
    51     7    47   1
    52     9    48   1
    53    14    49   1
    54    15    50   1
    55    16    51   1
    56    16    52   1
    57    17    53   1
    58    21    54   1
    59    23    55   1
    60    25    56   1
    61    26    57   1
    62    27    58   1
    63    28    59   1
    64    32    60   1
    65    34    61   1
    66    37    62   1
@<TRIPOS>SUBSTRUCTURE
     1  MOL      1

