@<TRIPOS>MOLECULE
3nw9_ligand_071
    62    66
SMALL
GAST_HUCK
****
This file was generated by PARSER (from files_GN.cpp)

@<TRIPOS>ATOM
      1 C1          1.4193   12.6001   16.0759 C.3         1 MOL       0.2034
      2 C2          1.5774   12.3521   14.5573 C.3         1 MOL       0.1402
      3 O3          2.8454   11.7906   14.2102 O.3         1 MOL      -0.3834
      4 C4          1.3666   13.7395   13.9396 C.3         1 MOL       0.1189
      5 O5          2.5916   14.4644   13.8180 O.3         1 MOL      -0.3846
      6 C6          0.4412   14.4492   14.9503 C.3         1 MOL       0.1082
      7 C7         -0.0288    7.2098   18.6394 C.3         1 MOL      -0.0106
      8 N8         -0.2307   10.2794   18.3160 N.2         1 MOL      -0.2933
      9 C9          0.0079   11.5063   17.8203 C.2         1 MOL       0.1151
     10 N10         0.9274   11.4694   16.8246 N.pl3       1 MOL      -0.1882
     11 C11         1.2999   10.1788   16.7133 C.ar        1 MOL       0.1683
     12 C12         0.5595    9.4412   17.6357 C.ar        1 MOL       0.0876
     13 O13         0.5376   13.7288   16.1923 O.3         1 MOL      -0.3296
     14 C14        -0.9578   14.4774   14.5320 C.2         1 MOL      -0.0658
     15 C15        -1.5288   15.5222   13.9117 C.2         1 MOL      -0.0744
     16 C16        -2.9232   15.5591   13.4913 C.3         1 MOL       0.0471
     17 N17        -3.6002   16.7391   13.9413 N.am        1 MOL      -0.2802
     18 C18        -3.8869   17.0748   15.1957 C.2         1 MOL       0.1986
     19 O19        -3.5724   16.2956   16.0895 O.2         1 MOL      -0.3908
     20 C20        -4.5849   18.2551   15.5162 C.ar        1 MOL       0.0720
     21 C21        -5.3260   18.3306   16.7269 C.ar        1 MOL      -0.0533
     22 C22        -6.0855   19.4679   17.0816 C.ar        1 MOL      -0.0339
     23 C23        -6.0767   20.5780   16.2099 C.ar        1 MOL      -0.0299
     24 C24        -6.8473   19.4946   18.2870 C.ar        1 MOL      -0.0299
     25 C25        -6.2546   19.1552   19.5273 C.ar        1 MOL      -0.0581
     26 C26        -7.0040   19.1865   20.7191 C.ar        1 MOL      -0.0288
     27 C27        -8.2160   19.8586   18.2730 C.ar        1 MOL      -0.0581
     28 C28        -8.9698   19.8792   19.4622 C.ar        1 MOL      -0.0288
     29 C29        -8.3639   19.5457   20.6875 C.ar        1 MOL       0.1316
     30 F30        -9.0610   19.5689   21.7914 F           1 MOL      -0.1840
     31 C31        -4.5948   19.4002   14.6702 C.ar        1 MOL       0.1393
     32 O32        -3.8602   19.4616   13.5292 O.3         1 MOL      -0.3302
     33 C33        -5.3240   20.5521   15.0241 C.ar        1 MOL       0.1232
     34 O34        -5.2828   21.6559   14.2367 O.3         1 MOL      -0.3356
     35 C35         0.7357    8.0432   17.6981 C.ar        1 MOL       0.0444
     36 N38         1.6370    7.4751   16.8465 N.ar        1 MOL      -0.2825
     37 C39         2.3521    8.2143   15.9545 C.ar        1 MOL       0.0619
     38 N40         2.1843    9.5602   15.8892 N.ar        1 MOL      -0.2608
     39 H1          2.3831   12.8968   16.5007 H           1 MOL       0.0998
     40 H2          0.7872   11.6801   14.2088 H           1 MOL       0.0678
     41 H3          3.5163   12.4183   14.5598 H           1 MOL       0.2101
     42 H4          0.9198   13.6562   12.9439 H           1 MOL       0.0667
     43 H5          3.1165   14.2659   14.6233 H           1 MOL       0.2102
     44 H6          0.8037   15.4659   15.1341 H           1 MOL       0.0749
     45 H7          0.2208    6.1534   18.5217 H           1 MOL       0.0446
     46 H8         -1.0977    7.3344   18.4573 H           1 MOL       0.0446
     47 H9          0.1955    7.5072   19.6650 H           1 MOL       0.0446
     48 H10        -0.4519   12.3464   18.1717 H           1 MOL       0.1373
     49 H11        -1.4923   13.6526   14.6767 H           1 MOL       0.0477
     50 H12        -0.9715   16.3189   13.7041 H           1 MOL       0.0470
     51 H13        -3.4881   14.6772   13.8108 H           1 MOL       0.0643
     52 H14        -2.9334   15.5689   12.4006 H           1 MOL       0.0643
     53 H15        -3.9143   17.3314   13.2457 H           1 MOL       0.1864
     54 H16        -5.3519   17.5188   17.3505 H           1 MOL       0.0555
     55 H17        -6.5965   21.4280   16.4500 H           1 MOL       0.0543
     56 H18        -5.2657   18.8970   19.5775 H           1 MOL       0.0601
     57 H19        -6.5577   18.9440   21.6084 H           1 MOL       0.0602
     58 H20        -8.6820   20.0940   17.3937 H           1 MOL       0.0601
     59 H21        -9.9597   20.1365   19.4329 H           1 MOL       0.0602
     60 H22        -4.5164   19.4234   12.7995 H           1 MOL       0.2479
     61 H23        -4.8835   22.3596   14.7968 H           1 MOL       0.2443
     62 H24         3.0140    7.7531   15.3288 H           1 MOL       0.1019
@<TRIPOS>BOND
     1     1     2   1
     2    10     1   1
     3     1    13   1
     4     2     3   1
     5     2     4   1
     6     4     5   1
     7     6     4   1
     8    13     6   1
     9     6    14   1
    10    35     7   1
    11     8     9   2
    12    12     8   1
    13    10     9   1
    14    11    10   1
    15    12    11  ar
    16    11    38  ar
    17    12    35  ar
    18    14    15   2
    19    15    16   1
    20    16    17   1
    21    17    18  am
    22    18    19   2
    23    18    20   1
    24    20    21  ar
    25    20    31  ar
    26    21    22  ar
    27    22    23  ar
    28    22    24   1
    29    23    33  ar
    30    24    25  ar
    31    24    27  ar
    32    25    26  ar
    33    26    29  ar
    34    27    28  ar
    35    28    29  ar
    36    29    30   1
    37    31    32   1
    38    31    33  ar
    39    33    34   1
    40    35    36  ar
    41    36    37  ar
    42    37    38  ar
    43     1    39   1
    44     2    40   1
    45     3    41   1
    46     4    42   1
    47     5    43   1
    48     6    44   1
    49     7    45   1
    50     7    46   1
    51     7    47   1
    52     9    48   1
    53    14    49   1
    54    15    50   1
    55    16    51   1
    56    16    52   1
    57    17    53   1
    58    21    54   1
    59    23    55   1
    60    25    56   1
    61    26    57   1
    62    27    58   1
    63    28    59   1
    64    32    60   1
    65    34    61   1
    66    37    62   1
@<TRIPOS>SUBSTRUCTURE
     1  MOL      1

