@<TRIPOS>MOLECULE
3nw9_ligand_002
    62    66
SMALL
GAST_HUCK
****
This file was generated by PARSER (from files_GN.cpp)

@<TRIPOS>ATOM
      1 C1         -4.4617   21.4289   13.8026 C.3         1 MOL       0.2034
      2 C2         -4.5793   20.6615   15.1346 C.3         1 MOL       0.1402
      3 O3         -5.4846   21.2911   16.0426 O.3         1 MOL      -0.3834
      4 C4         -3.1208   20.5906   15.6340 C.3         1 MOL       0.1189
      5 O5         -2.9105   21.3118   16.8461 O.3         1 MOL      -0.3846
      6 C6         -2.2645   21.1626   14.4748 C.3         1 MOL       0.1082
      7 C7         -8.4980   21.0822    9.1934 C.3         1 MOL      -0.0106
      8 N8         -6.5040   19.8780   11.2519 N.2         1 MOL      -0.2933
      9 C9         -5.6182   19.8378   12.2674 C.2         1 MOL       0.1151
     10 N10        -5.4156   21.0636   12.7880 N.pl3       1 MOL      -0.1882
     11 C11        -6.1965   21.9103   12.0847 C.ar        1 MOL       0.1683
     12 C12        -6.8763   21.1582   11.1270 C.ar        1 MOL       0.0876
     13 O13        -3.1375   21.1478   13.3367 O.3         1 MOL      -0.3296
     14 C14        -1.0578   20.4393   14.0886 C.2         1 MOL      -0.0658
     15 C15        -0.3664   19.5896   14.8715 C.2         1 MOL      -0.0744
     16 C16         0.5517   18.6079   14.3192 C.3         1 MOL       0.0471
     17 N17        -0.0218   17.2912   14.2786 N.am        1 MOL      -0.2802
     18 C18        -1.1454   16.8799   13.6656 C.2         1 MOL       0.1986
     19 O19        -1.8602   17.7327   13.1246 O.2         1 MOL      -0.3908
     20 C20        -1.5571   15.5293   13.6184 C.ar        1 MOL       0.0720
     21 C21        -0.6947   14.4983   14.1000 C.ar        1 MOL      -0.0533
     22 C22        -1.0362   13.1199   14.0414 C.ar        1 MOL      -0.0339
     23 C23        -2.2898   12.7740   13.5017 C.ar        1 MOL      -0.0299
     24 C24        -0.1342   12.1069   14.4673 C.ar        1 MOL      -0.0299
     25 C25         1.2028   12.0885   13.9924 C.ar        1 MOL      -0.0581
     26 C26         2.0860   11.0581   14.3571 C.ar        1 MOL      -0.0288
     27 C27        -0.5495   11.0610   15.3304 C.ar        1 MOL      -0.0581
     28 C28         0.3365   10.0320   15.7016 C.ar        1 MOL      -0.0288
     29 C29         1.6571   10.0291   15.2172 C.ar        1 MOL       0.1316
     30 F30         2.4761    9.0736   15.5558 F           1 MOL      -0.1840
     31 C31        -2.8277   15.1243   13.0984 C.ar        1 MOL       0.1393
     32 O32        -3.8013   15.9651   12.6431 O.3         1 MOL      -0.3302
     33 C33        -3.1720   13.7535   13.0361 C.ar        1 MOL       0.1232
     34 O34        -4.3665   13.3708   12.5158 O.3         1 MOL      -0.3356
     35 C35        -7.7490   21.8164   10.2320 C.ar        1 MOL       0.0444
     36 N38        -7.8650   23.1668   10.3431 N.ar        1 MOL      -0.2825
     37 C39        -7.1932   23.8843   11.2926 C.ar        1 MOL       0.0619
     38 N40        -6.3642   23.2519   12.1649 N.ar        1 MOL      -0.2608
     39 H1         -4.5215   22.5014   14.0067 H           1 MOL       0.0998
     40 H2         -4.9441   19.6435   14.9633 H           1 MOL       0.0678
     41 H3         -5.1245   22.1882   16.1940 H           1 MOL       0.2101
     42 H4         -2.8815   19.5345   15.8277 H           1 MOL       0.0667
     43 H5         -1.9516   21.1940   17.0500 H           1 MOL       0.2102
     44 H6         -2.0014   22.2098   14.6766 H           1 MOL       0.0749
     45 H7         -9.1159   21.7645    8.6009 H           1 MOL       0.0446
     46 H8         -9.1504   20.3455    9.6640 H           1 MOL       0.0446
     47 H9         -7.8046   20.5724    8.5230 H           1 MOL       0.0446
     48 H10        -5.1513   18.9772   12.5697 H           1 MOL       0.1373
     49 H11        -0.7973   20.5060   13.1310 H           1 MOL       0.0477
     50 H12        -0.5751   19.5390   15.8465 H           1 MOL       0.0470
     51 H13         1.4462   18.5990   14.9496 H           1 MOL       0.0643
     52 H14         0.8796   18.8864   13.3106 H           1 MOL       0.0643
     53 H15         0.5087   16.6147   14.7295 H           1 MOL       0.1864
     54 H16         0.2119   14.7334   14.5063 H           1 MOL       0.0555
     55 H17        -2.5701   11.7833   13.4261 H           1 MOL       0.0543
     56 H18         1.5322   12.8115   13.3473 H           1 MOL       0.0601
     57 H19         3.0379   11.0509   13.9817 H           1 MOL       0.0602
     58 H20        -1.5070   11.0396   15.6947 H           1 MOL       0.0601
     59 H21         0.0120    9.2809   16.3176 H           1 MOL       0.0602
     60 H22        -3.7064   16.8376   13.1048 H           1 MOL       0.2479
     61 H23        -4.7098   12.6869   13.1279 H           1 MOL       0.2443
     62 H24        -7.3085   24.8928   11.3431 H           1 MOL       0.1019
@<TRIPOS>BOND
     1     1     2   1
     2    10     1   1
     3     1    13   1
     4     2     3   1
     5     2     4   1
     6     4     5   1
     7     6     4   1
     8    13     6   1
     9     6    14   1
    10    35     7   1
    11     8     9   2
    12    12     8   1
    13    10     9   1
    14    11    10   1
    15    12    11  ar
    16    11    38  ar
    17    12    35  ar
    18    14    15   2
    19    15    16   1
    20    16    17   1
    21    17    18  am
    22    18    19   2
    23    18    20   1
    24    20    21  ar
    25    20    31  ar
    26    21    22  ar
    27    22    23  ar
    28    22    24   1
    29    23    33  ar
    30    24    25  ar
    31    24    27  ar
    32    25    26  ar
    33    26    29  ar
    34    27    28  ar
    35    28    29  ar
    36    29    30   1
    37    31    32   1
    38    31    33  ar
    39    33    34   1
    40    35    36  ar
    41    36    37  ar
    42    37    38  ar
    43     1    39   1
    44     2    40   1
    45     3    41   1
    46     4    42   1
    47     5    43   1
    48     6    44   1
    49     7    45   1
    50     7    46   1
    51     7    47   1
    52     9    48   1
    53    14    49   1
    54    15    50   1
    55    16    51   1
    56    16    52   1
    57    17    53   1
    58    21    54   1
    59    23    55   1
    60    25    56   1
    61    26    57   1
    62    27    58   1
    63    28    59   1
    64    32    60   1
    65    34    61   1
    66    37    62   1
@<TRIPOS>SUBSTRUCTURE
     1  MOL      1

