@<TRIPOS>MOLECULE
3nw9_ligand_048
    62    66
SMALL
GAST_HUCK
****
This file was generated by PARSER (from files_GN.cpp)

@<TRIPOS>ATOM
      1 C1         -6.0531   20.1211   13.3019 C.3         1 MOL       0.2034
      2 C2         -6.4483   21.6098   13.1764 C.3         1 MOL       0.1402
      3 O3         -7.0493   21.8424   11.8990 O.3         1 MOL      -0.3834
      4 C4         -5.0905   22.3128   13.3024 C.3         1 MOL       0.1189
      5 O5         -5.0977   23.5970   12.6894 O.3         1 MOL      -0.3846
      6 C6         -4.1217   21.2963   12.6461 C.3         1 MOL       0.1082
      7 C7         -5.4057   18.4399   19.1944 C.3         1 MOL      -0.0106
      8 N8         -4.9611   18.1859   16.1570 N.2         1 MOL      -0.2933
      9 C9         -5.0348   18.4756   14.8474 C.2         1 MOL       0.1151
     10 N10        -5.7968   19.5757   14.6195 N.pl3       1 MOL      -0.1882
     11 C11        -6.2685   19.9483   15.8322 C.ar        1 MOL       0.1683
     12 C12        -5.7114   19.0971   16.7851 C.ar        1 MOL       0.0876
     13 O13        -4.8679   20.0717   12.4888 O.3         1 MOL      -0.3296
     14 C14        -2.8725   21.1092   13.3762 C.2         1 MOL      -0.0658
     15 C15        -2.1632   19.9640   13.3593 C.2         1 MOL      -0.0744
     16 C16        -0.9998   19.7404   14.2033 C.3         1 MOL       0.0471
     17 N17        -0.4774   18.4091   14.0928 N.am        1 MOL      -0.2802
     18 C18        -1.1857   17.2759   14.2305 C.2         1 MOL       0.1986
     19 O19        -2.3852   17.3702   14.4936 O.2         1 MOL      -0.3908
     20 C20        -0.6018   16.0000   14.1274 C.ar        1 MOL       0.0720
     21 C21        -1.4235   14.8393   14.1728 C.ar        1 MOL      -0.0533
     22 C22        -0.8903   13.5293   14.2095 C.ar        1 MOL      -0.0339
     23 C23         0.5115   13.3746   14.1471 C.ar        1 MOL      -0.0299
     24 C24        -1.7390   12.4024   14.3827 C.ar        1 MOL      -0.0299
     25 C25        -2.8311   12.1640   13.5066 C.ar        1 MOL      -0.0581
     26 C26        -3.6783   11.0562   13.7033 C.ar        1 MOL      -0.0288
     27 C27        -1.5339   11.5103   15.4666 C.ar        1 MOL      -0.0581
     28 C28        -2.3879   10.4110   15.6664 C.ar        1 MOL      -0.0288
     29 C29        -3.4591   10.1779   14.7811 C.ar        1 MOL       0.1316
     30 F30        -4.2433    9.1474   14.9616 F           1 MOL      -0.1840
     31 C31         0.8032   15.7960   14.0592 C.ar        1 MOL       0.1393
     32 O32         1.6696   16.8475   14.0600 O.3         1 MOL      -0.3302
     33 C33         1.3502   14.4937   14.0552 C.ar        1 MOL       0.1232
     34 O34         2.6842   14.3547   13.9229 O.3         1 MOL      -0.3356
     35 C35        -6.0015   19.2864   18.1487 C.ar        1 MOL       0.0444
     36 N38        -6.8687   20.2869   18.4744 N.ar        1 MOL      -0.2825
     37 C39        -7.4431   21.0825   17.5306 C.ar        1 MOL       0.0619
     38 N40        -7.1359   20.9176   16.2208 N.ar        1 MOL      -0.2608
     39 H1         -6.8135   19.4925   12.8301 H           1 MOL       0.0998
     40 H2         -7.1411   21.9312   13.9462 H           1 MOL       0.0678
     41 H3         -7.3311   22.7822   11.9070 H           1 MOL       0.2101
     42 H4         -4.8672   22.4492   14.3638 H           1 MOL       0.0667
     43 H5         -4.2284   23.6944   12.2472 H           1 MOL       0.2102
     44 H6         -3.8752   21.6429   11.6409 H           1 MOL       0.0749
     45 H7         -5.7703   18.7284   20.1815 H           1 MOL       0.0446
     46 H8         -4.3194   18.5438   19.1792 H           1 MOL       0.0446
     47 H9         -5.6682   17.3968   19.0127 H           1 MOL       0.0446
     48 H10        -4.5579   17.9139   14.1310 H           1 MOL       0.1373
     49 H11        -2.5259   21.8697   13.9202 H           1 MOL       0.0477
     50 H12        -2.4716   19.2169   12.7848 H           1 MOL       0.0470
     51 H13        -1.2489   19.9419   15.2509 H           1 MOL       0.0643
     52 H14        -0.2074   20.4403   13.9179 H           1 MOL       0.0643
     53 H15         0.4722   18.3266   13.8761 H           1 MOL       0.1864
     54 H16        -2.4460   14.9402   14.2196 H           1 MOL       0.0555
     55 H17         0.9283   12.4381   14.1554 H           1 MOL       0.0543
     56 H18        -3.0024   12.7829   12.7157 H           1 MOL       0.0601
     57 H19        -4.4557   10.8889   13.0577 H           1 MOL       0.0602
     58 H20        -0.7721   11.6675   16.1267 H           1 MOL       0.0601
     59 H21        -2.2327    9.7826   16.4610 H           1 MOL       0.0602
     60 H22         2.1965   16.7329   14.8885 H           1 MOL       0.2479
     61 H23         3.0254   13.9466   14.7466 H           1 MOL       0.2443
     62 H24        -8.1098   21.8009   17.8109 H           1 MOL       0.1019
@<TRIPOS>BOND
     1     1     2   1
     2    10     1   1
     3     1    13   1
     4     2     3   1
     5     2     4   1
     6     4     5   1
     7     6     4   1
     8    13     6   1
     9     6    14   1
    10    35     7   1
    11     8     9   2
    12    12     8   1
    13    10     9   1
    14    11    10   1
    15    12    11  ar
    16    11    38  ar
    17    12    35  ar
    18    14    15   2
    19    15    16   1
    20    16    17   1
    21    17    18  am
    22    18    19   2
    23    18    20   1
    24    20    21  ar
    25    20    31  ar
    26    21    22  ar
    27    22    23  ar
    28    22    24   1
    29    23    33  ar
    30    24    25  ar
    31    24    27  ar
    32    25    26  ar
    33    26    29  ar
    34    27    28  ar
    35    28    29  ar
    36    29    30   1
    37    31    32   1
    38    31    33  ar
    39    33    34   1
    40    35    36  ar
    41    36    37  ar
    42    37    38  ar
    43     1    39   1
    44     2    40   1
    45     3    41   1
    46     4    42   1
    47     5    43   1
    48     6    44   1
    49     7    45   1
    50     7    46   1
    51     7    47   1
    52     9    48   1
    53    14    49   1
    54    15    50   1
    55    16    51   1
    56    16    52   1
    57    17    53   1
    58    21    54   1
    59    23    55   1
    60    25    56   1
    61    26    57   1
    62    27    58   1
    63    28    59   1
    64    32    60   1
    65    34    61   1
    66    37    62   1
@<TRIPOS>SUBSTRUCTURE
     1  MOL      1

