@<TRIPOS>MOLECULE
3nw9_ligand_054
    62    66
SMALL
GAST_HUCK
****
This file was generated by PARSER (from files_GN.cpp)

@<TRIPOS>ATOM
      1 C1         -5.6985   17.6460   17.7193 C.3         1 MOL       0.2034
      2 C2         -5.3322   18.8586   18.5933 C.3         1 MOL       0.1402
      3 O3         -5.8624   18.7419   19.9171 O.3         1 MOL      -0.3834
      4 C4         -5.9171   20.0433   17.8014 C.3         1 MOL       0.1189
      5 O5         -7.2142   20.4045   18.2731 O.3         1 MOL      -0.3846
      6 C6         -5.9654   19.5164   16.3321 C.3         1 MOL       0.1082
      7 C7         -2.4480   12.4475   17.7653 C.3         1 MOL      -0.0106
      8 N8         -3.8105   14.8792   19.0801 N.2         1 MOL      -0.2933
      9 C9         -4.5197   16.0132   19.1872 C.2         1 MOL       0.1151
     10 N10        -4.9084   16.4712   17.9759 N.pl3       1 MOL      -0.1882
     11 C11        -4.4515   15.5765   17.0756 C.ar        1 MOL       0.1683
     12 C12        -3.7586   14.5933   17.7751 C.ar        1 MOL       0.0876
     13 O13        -5.5179   18.1497   16.3893 O.3         1 MOL      -0.3296
     14 C14        -5.1365   20.2647   15.3980 C.2         1 MOL      -0.0658
     15 C15        -4.9126   19.8813   14.1265 C.2         1 MOL      -0.0744
     16 C16        -3.8210   20.4280   13.3335 C.3         1 MOL       0.0471
     17 N17        -2.6346   19.6192   13.3626 N.am        1 MOL      -0.2802
     18 C18        -2.0798   19.0643   14.4358 C.2         1 MOL       0.1986
     19 O19        -2.6075   19.0502   15.5385 O.2         1 MOL      -0.3908
     20 C20        -0.7976   18.5462   14.3384 C.ar        1 MOL       0.0720
     21 C21        -0.5979   17.1495   14.2941 C.ar        1 MOL      -0.0533
     22 C22         0.7026   16.5773   14.1857 C.ar        1 MOL      -0.0339
     23 C23         1.7952   17.4870   14.1208 C.ar        1 MOL      -0.0299
     24 C24         0.8976   15.1390   14.1701 C.ar        1 MOL      -0.0299
     25 C25         2.1364   14.5467   14.5536 C.ar        1 MOL      -0.0581
     26 C26         2.3316   13.1545   14.5366 C.ar        1 MOL      -0.0288
     27 C27        -0.1421   14.2386   13.7902 C.ar        1 MOL      -0.0581
     28 C28         0.0398   12.8430   13.8021 C.ar        1 MOL      -0.0288
     29 C29         1.2810   12.2944   14.1727 C.ar        1 MOL       0.1316
     30 F30         1.4623   11.0025   14.1878 F           1 MOL      -0.1840
     31 C31         0.3171   19.4203   14.3099 C.ar        1 MOL       0.1393
     32 O32         0.1288   20.7712   14.3820 O.3         1 MOL      -0.3302
     33 C33         1.6161   18.8794   14.2147 C.ar        1 MOL       0.1232
     34 O34         2.6933   19.7066   14.2713 O.3         1 MOL      -0.3356
     35 C35        -3.1775   13.5207   17.0690 C.ar        1 MOL       0.0444
     36 N38        -3.3273   13.5024   15.7143 N.ar        1 MOL      -0.2825
     37 C39        -4.0113   14.4722   15.0437 C.ar        1 MOL       0.0619
     38 N40        -4.5706   15.5057   15.7252 N.ar        1 MOL      -0.2608
     39 H1         -6.7545   17.3906   17.8652 H           1 MOL       0.0998
     40 H2         -4.2412   18.9524   18.6496 H           1 MOL       0.0678
     41 H3         -5.1088   18.8828   20.5289 H           1 MOL       0.2101
     42 H4         -5.2808   20.9217   17.9295 H           1 MOL       0.0667
     43 H5         -7.8113   19.6806   17.9745 H           1 MOL       0.2102
     44 H6         -6.9936   19.5185   15.9568 H           1 MOL       0.0749
     45 H7         -2.0987   11.6897   17.0608 H           1 MOL       0.0446
     46 H8         -3.1043   11.9667   18.4937 H           1 MOL       0.0446
     47 H9         -1.5837   12.8644   18.2859 H           1 MOL       0.0446
     48 H10        -4.7145   16.4623   20.0841 H           1 MOL       0.1373
     49 H11        -4.6192   21.0385   15.7438 H           1 MOL       0.0477
     50 H12        -5.4204   19.1109   13.7557 H           1 MOL       0.0470
     51 H13        -3.5576   21.4381   13.6580 H           1 MOL       0.0643
     52 H14        -4.1563   20.5118   12.2994 H           1 MOL       0.0643
     53 H15        -2.1302   19.5452   12.5393 H           1 MOL       0.1864
     54 H16        -1.4176   16.5417   14.3668 H           1 MOL       0.0555
     55 H17         2.7563   17.1331   14.0213 H           1 MOL       0.0543
     56 H18         2.9113   15.1288   14.8780 H           1 MOL       0.0601
     57 H19         3.2370   12.7601   14.8014 H           1 MOL       0.0602
     58 H20        -1.0561   14.5875   13.4828 H           1 MOL       0.0601
     59 H21        -0.7320   12.2244   13.5283 H           1 MOL       0.0602
     60 H22         0.8298   21.1825   13.8400 H           1 MOL       0.2479
     61 H23         3.2059   19.5290   13.4544 H           1 MOL       0.2443
     62 H24        -4.1037   14.4179   14.0282 H           1 MOL       0.1019
@<TRIPOS>BOND
     1     1     2   1
     2    10     1   1
     3     1    13   1
     4     2     3   1
     5     2     4   1
     6     4     5   1
     7     6     4   1
     8    13     6   1
     9     6    14   1
    10    35     7   1
    11     8     9   2
    12    12     8   1
    13    10     9   1
    14    11    10   1
    15    12    11  ar
    16    11    38  ar
    17    12    35  ar
    18    14    15   2
    19    15    16   1
    20    16    17   1
    21    17    18  am
    22    18    19   2
    23    18    20   1
    24    20    21  ar
    25    20    31  ar
    26    21    22  ar
    27    22    23  ar
    28    22    24   1
    29    23    33  ar
    30    24    25  ar
    31    24    27  ar
    32    25    26  ar
    33    26    29  ar
    34    27    28  ar
    35    28    29  ar
    36    29    30   1
    37    31    32   1
    38    31    33  ar
    39    33    34   1
    40    35    36  ar
    41    36    37  ar
    42    37    38  ar
    43     1    39   1
    44     2    40   1
    45     3    41   1
    46     4    42   1
    47     5    43   1
    48     6    44   1
    49     7    45   1
    50     7    46   1
    51     7    47   1
    52     9    48   1
    53    14    49   1
    54    15    50   1
    55    16    51   1
    56    16    52   1
    57    17    53   1
    58    21    54   1
    59    23    55   1
    60    25    56   1
    61    26    57   1
    62    27    58   1
    63    28    59   1
    64    32    60   1
    65    34    61   1
    66    37    62   1
@<TRIPOS>SUBSTRUCTURE
     1  MOL      1

