@<TRIPOS>MOLECULE
3nw9_ligand_018
    62    66
SMALL
GAST_HUCK
****
This file was generated by PARSER (from files_GN.cpp)

@<TRIPOS>ATOM
      1 C1         -5.3256   21.0607   14.4627 C.3         1 MOL       0.2034
      2 C2         -6.4295   21.0070   15.5370 C.3         1 MOL       0.1402
      3 O3         -7.1450   22.2313   15.6884 O.3         1 MOL      -0.3834
      4 C4         -5.6619   20.6173   16.8028 C.3         1 MOL       0.1189
      5 O5         -5.2140   21.7685   17.5208 O.3         1 MOL      -0.3846
      6 C6         -4.4538   19.8031   16.2574 C.3         1 MOL       0.1082
      7 C7         -8.2480   21.1117    9.0724 C.3         1 MOL      -0.0106
      8 N8         -6.6782   19.7648   11.3697 N.2         1 MOL      -0.2933
      9 C9         -6.0458   19.6355   12.5498 C.2         1 MOL       0.1151
     10 N10        -5.8663   20.8375   13.1450 N.pl3       1 MOL      -0.1882
     11 C11        -6.4038   21.7527   12.3149 C.ar        1 MOL       0.1683
     12 C12        -6.9267   21.0717   11.2161 C.ar        1 MOL       0.0876
     13 O13        -4.3841   20.0423   14.8287 O.3         1 MOL      -0.3296
     14 C14        -4.5096   18.3686   16.5110 C.2         1 MOL      -0.0658
     15 C15        -4.6824   17.8459   17.7434 C.2         1 MOL      -0.0744
     16 C16        -4.7655   16.4183   17.9974 C.3         1 MOL       0.0471
     17 N17        -5.7944   15.7925   17.2164 N.am        1 MOL      -0.2802
     18 C18        -5.6311   14.8613   16.2756 C.2         1 MOL       0.1986
     19 O19        -4.4962   14.4213   16.0958 O.2         1 MOL      -0.3908
     20 C20        -6.6843   14.3701   15.4809 C.ar        1 MOL       0.0720
     21 C21        -6.3848   13.6506   14.2857 C.ar        1 MOL      -0.0533
     22 C22        -7.3770   13.0965   13.4348 C.ar        1 MOL      -0.0339
     23 C23        -8.7282   13.3148   13.7925 C.ar        1 MOL      -0.0299
     24 C24        -7.0256   12.3274   12.2711 C.ar        1 MOL      -0.0299
     25 C25        -7.9034   12.2153   11.1626 C.ar        1 MOL      -0.0581
     26 C26        -7.5856   11.4087   10.0558 C.ar        1 MOL      -0.0288
     27 C27        -5.7963   11.6204   12.1975 C.ar        1 MOL      -0.0581
     28 C28        -5.4527   10.8541   11.0715 C.ar        1 MOL      -0.0288
     29 C29        -6.3530   10.7374   10.0013 C.ar        1 MOL       0.1316
     30 F30        -6.0480   10.0062    8.9628 F           1 MOL      -0.1840
     31 C31        -8.0627   14.5344   15.7996 C.ar        1 MOL       0.1393
     32 O32        -8.4778   15.1498   16.9312 O.3         1 MOL      -0.3302
     33 C33        -9.0726   14.0314   14.9505 C.ar        1 MOL       0.1232
     34 O34       -10.3931   14.2370   15.2259 O.3         1 MOL      -0.3356
     35 C35        -7.5950   21.7928   10.2077 C.ar        1 MOL       0.0444
     36 N38        -7.6688   23.1494   10.3446 N.ar        1 MOL      -0.2825
     37 C39        -7.1322   23.8004   11.4131 C.ar        1 MOL       0.0619
     38 N40        -6.5154   23.1061   12.4061 N.ar        1 MOL      -0.2608
     39 H1         -4.8058   22.0275   14.4943 H           1 MOL       0.0998
     40 H2         -7.1389   20.2072   15.2978 H           1 MOL       0.0678
     41 H3         -6.4596   22.9243   15.7769 H           1 MOL       0.2101
     42 H4         -6.3073   20.0466   17.4745 H           1 MOL       0.0667
     43 H5         -4.8676   22.3896   16.8470 H           1 MOL       0.2102
     44 H6         -3.5303   20.1817   16.6954 H           1 MOL       0.0749
     45 H7         -8.7259   21.8319    8.4029 H           1 MOL       0.0446
     46 H8         -9.0119   20.4327    9.4491 H           1 MOL       0.0446
     47 H9         -7.5153   20.5422    8.5044 H           1 MOL       0.0446
     48 H10        -5.7629   18.7318   12.9366 H           1 MOL       0.1373
     49 H11        -4.4120   17.7395   15.7410 H           1 MOL       0.0477
     50 H12        -4.7763   18.4671   18.5128 H           1 MOL       0.0470
     51 H13        -5.0176   16.2459   19.0503 H           1 MOL       0.0643
     52 H14        -3.7780   15.9829   17.8189 H           1 MOL       0.0643
     53 H15        -6.6962   16.1106   17.3814 H           1 MOL       0.1864
     54 H16        -5.4065   13.5405   14.0035 H           1 MOL       0.0555
     55 H17        -9.4863   12.9141   13.2331 H           1 MOL       0.0543
     56 H18        -8.7931   12.7247   11.1486 H           1 MOL       0.0601
     57 H19        -8.2545   11.3102    9.2876 H           1 MOL       0.0602
     58 H20        -5.1379   11.6426   12.9815 H           1 MOL       0.0601
     59 H21        -4.5548   10.3647   11.0413 H           1 MOL       0.0602
     60 H22        -8.5396   14.4310   17.5914 H           1 MOL       0.2479
     61 H23       -10.5784   13.7301   16.0525 H           1 MOL       0.2443
     62 H24        -7.2041   24.8160   11.4773 H           1 MOL       0.1019
@<TRIPOS>BOND
     1     1     2   1
     2    10     1   1
     3     1    13   1
     4     2     3   1
     5     2     4   1
     6     4     5   1
     7     6     4   1
     8    13     6   1
     9     6    14   1
    10    35     7   1
    11     8     9   2
    12    12     8   1
    13    10     9   1
    14    11    10   1
    15    12    11  ar
    16    11    38  ar
    17    12    35  ar
    18    14    15   2
    19    15    16   1
    20    16    17   1
    21    17    18  am
    22    18    19   2
    23    18    20   1
    24    20    21  ar
    25    20    31  ar
    26    21    22  ar
    27    22    23  ar
    28    22    24   1
    29    23    33  ar
    30    24    25  ar
    31    24    27  ar
    32    25    26  ar
    33    26    29  ar
    34    27    28  ar
    35    28    29  ar
    36    29    30   1
    37    31    32   1
    38    31    33  ar
    39    33    34   1
    40    35    36  ar
    41    36    37  ar
    42    37    38  ar
    43     1    39   1
    44     2    40   1
    45     3    41   1
    46     4    42   1
    47     5    43   1
    48     6    44   1
    49     7    45   1
    50     7    46   1
    51     7    47   1
    52     9    48   1
    53    14    49   1
    54    15    50   1
    55    16    51   1
    56    16    52   1
    57    17    53   1
    58    21    54   1
    59    23    55   1
    60    25    56   1
    61    26    57   1
    62    27    58   1
    63    28    59   1
    64    32    60   1
    65    34    61   1
    66    37    62   1
@<TRIPOS>SUBSTRUCTURE
     1  MOL      1

