@<TRIPOS>MOLECULE
3nw9_ligand_015
    62    66
SMALL
GAST_HUCK
****
This file was generated by PARSER (from files_GN.cpp)

@<TRIPOS>ATOM
      1 C1         -5.4663   21.2041   14.4674 C.3         1 MOL       0.2034
      2 C2         -6.4917   21.0688   15.6120 C.3         1 MOL       0.1402
      3 O3         -7.2759   22.2447   15.7987 O.3         1 MOL      -0.3834
      4 C4         -5.5992   20.7453   16.8184 C.3         1 MOL       0.1189
      5 O5         -5.1293   21.9252   17.4699 O.3         1 MOL      -0.3846
      6 C6         -4.4316   19.9547   16.1720 C.3         1 MOL       0.1082
      7 C7         -8.1938   21.2771    8.9624 C.3         1 MOL      -0.0106
      8 N8         -6.7826   19.8793   11.3733 N.2         1 MOL      -0.2933
      9 C9         -6.2111   19.7529   12.5842 C.2         1 MOL       0.1151
     10 N10        -6.0319   20.9578   13.1689 N.pl3       1 MOL      -0.1882
     11 C11        -6.5119   21.8709   12.3045 C.ar        1 MOL       0.1683
     12 C12        -6.9980   21.1906   11.1885 C.ar        1 MOL       0.0876
     13 O13        -4.4054   20.2832   14.7704 O.3         1 MOL      -0.3296
     14 C14        -4.5860   18.5167   16.3341 C.2         1 MOL      -0.0658
     15 C15        -4.4434   17.9060   17.5230 C.2         1 MOL      -0.0744
     16 C16        -4.7054   16.4971   17.7324 C.3         1 MOL       0.0471
     17 N17        -4.0357   15.6873   16.7704 N.am        1 MOL      -0.2802
     18 C18        -4.2069   14.3868   16.6219 C.2         1 MOL       0.1986
     19 O19        -4.9379   13.7184   17.3415 O.2         1 MOL      -0.3908
     20 C20        -3.5602   13.7785   15.5762 C.ar        1 MOL       0.0720
     21 C21        -2.4012   13.0180   15.8335 C.ar        1 MOL      -0.0533
     22 C22        -1.6901   12.4119   14.7754 C.ar        1 MOL      -0.0339
     23 C23        -2.1577   12.5716   13.4514 C.ar        1 MOL      -0.0299
     24 C24        -0.5478   11.6280   15.0598 C.ar        1 MOL      -0.0299
     25 C25         0.7158   11.9538   14.5139 C.ar        1 MOL      -0.0581
     26 C26         1.8425   11.1635   14.8092 C.ar        1 MOL      -0.0288
     27 C27        -0.6611   10.5016   15.9085 C.ar        1 MOL      -0.0581
     28 C28         0.4624    9.7067   16.1932 C.ar        1 MOL      -0.0288
     29 C29         1.7152   10.0363   15.6437 C.ar        1 MOL       0.1316
     30 F30         2.7546    9.2978   15.9145 F           1 MOL      -0.1840
     31 C31        -4.0146   13.9357   14.2459 C.ar        1 MOL       0.1393
     32 O32        -5.1272   14.6612   13.9720 O.3         1 MOL      -0.3302
     33 C33        -3.3192   13.3213   13.1868 C.ar        1 MOL       0.1232
     34 O34        -3.7755   13.4295   11.9137 O.3         1 MOL      -0.3356
     35 C35        -7.6000   21.9261   10.1458 C.ar        1 MOL       0.0444
     36 N38        -7.6508   23.2825   10.2761 N.ar        1 MOL      -0.2825
     37 C39        -7.1508   23.9298   11.3649 C.ar        1 MOL       0.0619
     38 N40        -6.5868   23.2236   12.3805 N.ar        1 MOL      -0.2608
     39 H1         -5.0284   22.2085   14.4897 H           1 MOL       0.0998
     40 H2         -7.1630   20.2252   15.4233 H           1 MOL       0.0678
     41 H3         -6.6252   22.9689   15.9220 H           1 MOL       0.2101
     42 H4         -6.1531   20.1685   17.5662 H           1 MOL       0.0667
     43 H5         -4.7740   22.4966   16.7609 H           1 MOL       0.2102
     44 H6         -3.4702   20.2570   16.6005 H           1 MOL       0.0749
     45 H7         -8.6477   22.0161    8.2986 H           1 MOL       0.0446
     46 H8         -8.9695   20.5753    9.2734 H           1 MOL       0.0446
     47 H9         -7.4279   20.7367    8.4069 H           1 MOL       0.0446
     48 H10        -5.9413   18.8556   12.9919 H           1 MOL       0.1373
     49 H11        -4.8232   17.9704   15.5353 H           1 MOL       0.0477
     50 H12        -4.1871   18.4520   18.3154 H           1 MOL       0.0470
     51 H13        -5.7824   16.3311   17.6612 H           1 MOL       0.0643
     52 H14        -4.3717   16.2016   18.7315 H           1 MOL       0.0643
     53 H15        -3.4384   16.1280   16.1447 H           1 MOL       0.1864
     54 H16        -2.0593   12.9234   16.7972 H           1 MOL       0.0555
     55 H17        -1.6644   12.1270   12.6746 H           1 MOL       0.0543
     56 H18         0.8269   12.7734   13.9104 H           1 MOL       0.0601
     57 H19         2.7531   11.4125   14.4158 H           1 MOL       0.0602
     58 H20        -1.5653   10.2438   16.3139 H           1 MOL       0.0601
     59 H21         0.3622    8.8900   16.8008 H           1 MOL       0.0602
     60 H22        -5.8406   13.9949   13.8665 H           1 MOL       0.2479
     61 H23        -3.5351   14.3353   11.6220 H           1 MOL       0.2443
     62 H24        -7.2109   24.9459   11.4254 H           1 MOL       0.1019
@<TRIPOS>BOND
     1     1     2   1
     2    10     1   1
     3     1    13   1
     4     2     3   1
     5     2     4   1
     6     4     5   1
     7     6     4   1
     8    13     6   1
     9     6    14   1
    10    35     7   1
    11     8     9   2
    12    12     8   1
    13    10     9   1
    14    11    10   1
    15    12    11  ar
    16    11    38  ar
    17    12    35  ar
    18    14    15   2
    19    15    16   1
    20    16    17   1
    21    17    18  am
    22    18    19   2
    23    18    20   1
    24    20    21  ar
    25    20    31  ar
    26    21    22  ar
    27    22    23  ar
    28    22    24   1
    29    23    33  ar
    30    24    25  ar
    31    24    27  ar
    32    25    26  ar
    33    26    29  ar
    34    27    28  ar
    35    28    29  ar
    36    29    30   1
    37    31    32   1
    38    31    33  ar
    39    33    34   1
    40    35    36  ar
    41    36    37  ar
    42    37    38  ar
    43     1    39   1
    44     2    40   1
    45     3    41   1
    46     4    42   1
    47     5    43   1
    48     6    44   1
    49     7    45   1
    50     7    46   1
    51     7    47   1
    52     9    48   1
    53    14    49   1
    54    15    50   1
    55    16    51   1
    56    16    52   1
    57    17    53   1
    58    21    54   1
    59    23    55   1
    60    25    56   1
    61    26    57   1
    62    27    58   1
    63    28    59   1
    64    32    60   1
    65    34    61   1
    66    37    62   1
@<TRIPOS>SUBSTRUCTURE
     1  MOL      1

