@<TRIPOS>MOLECULE
3nw9_ligand_047
    62    66
SMALL
GAST_HUCK
****
This file was generated by PARSER (from files_GN.cpp)

@<TRIPOS>ATOM
      1 C1         -5.1808   20.5122   13.7167 C.3         1 MOL       0.2034
      2 C2         -4.6518   21.7578   14.4548 C.3         1 MOL       0.1402
      3 O3         -3.4866   22.2561   13.7949 O.3         1 MOL      -0.3834
      4 C4         -4.4016   21.2455   15.8943 C.3         1 MOL       0.1189
      5 O5         -3.0179   21.1963   16.2420 O.3         1 MOL      -0.3846
      6 C6         -5.0169   19.8249   15.9019 C.3         1 MOL       0.1082
      7 C7         -8.8656   21.8295    8.9662 C.3         1 MOL      -0.0106
      8 N8         -7.3625   19.9873   10.9188 N.2         1 MOL      -0.2933
      9 C9         -6.5777   19.6118   11.9389 C.2         1 MOL       0.1151
     10 N10        -6.0559   20.6727   12.5897 N.pl3       1 MOL      -0.1882
     11 C11        -6.5165   21.7662   11.9440 C.ar        1 MOL       0.1683
     12 C12        -7.3365   21.3242   10.9026 C.ar        1 MOL       0.0876
     13 O13        -5.8572   19.7785   14.7446 O.3         1 MOL      -0.3296
     14 C14        -5.7766   19.4814   17.0954 C.2         1 MOL      -0.0658
     15 C15        -5.1836   19.1035   18.2392 C.2         1 MOL      -0.0744
     16 C16        -5.9082   18.7036   19.4335 C.3         1 MOL       0.0471
     17 N17        -5.0984   17.8803   20.2763 N.am        1 MOL      -0.2802
     18 C18        -4.6889   16.6440   20.0214 C.2         1 MOL       0.1986
     19 O19        -5.0783   16.0644   19.0127 O.2         1 MOL      -0.3908
     20 C20        -3.8623   15.9730   20.9169 C.ar        1 MOL       0.0720
     21 C21        -4.1908   14.6484   21.3008 C.ar        1 MOL      -0.0533
     22 C22        -3.3720   13.9114   22.1822 C.ar        1 MOL      -0.0339
     23 C23        -2.1916   14.5019   22.6748 C.ar        1 MOL      -0.0299
     24 C24        -3.7484   12.6091   22.5875 C.ar        1 MOL      -0.0299
     25 C25        -3.0237   11.4778   22.1478 C.ar        1 MOL      -0.0581
     26 C26        -3.4262   10.1842   22.5298 C.ar        1 MOL      -0.0288
     27 C27        -4.8727   12.4241   23.4267 C.ar        1 MOL      -0.0581
     28 C28        -5.2642   11.1307   23.8161 C.ar        1 MOL      -0.0288
     29 C29        -4.5446   10.0092   23.3656 C.ar        1 MOL       0.1316
     30 F30        -4.9153    8.8098   23.7215 F           1 MOL      -0.1840
     31 C31        -2.6922   16.5635   21.4627 C.ar        1 MOL       0.1393
     32 O32        -2.3071   17.8192   21.1105 O.3         1 MOL      -0.3302
     33 C33        -1.8596   15.8222   22.3314 C.ar        1 MOL       0.1232
     34 O34        -0.7132   16.3452   22.8354 O.3         1 MOL      -0.3356
     35 C35        -7.9730   22.2556   10.0593 C.ar        1 MOL       0.0444
     36 N38        -7.7336   23.5778   10.2980 N.ar        1 MOL      -0.2825
     37 C39        -6.9252   24.0019   11.3135 C.ar        1 MOL       0.0619
     38 N40        -6.3281   23.0994   12.1380 N.ar        1 MOL      -0.2608
     39 H1         -4.3207   19.9227   13.3760 H           1 MOL       0.0998
     40 H2         -5.4165   22.5358   14.4961 H           1 MOL       0.0678
     41 H3         -3.8133   22.9625   13.1949 H           1 MOL       0.2101
     42 H4         -4.9129   21.9035   16.6077 H           1 MOL       0.0667
     43 H5         -2.6763   22.0780   15.9879 H           1 MOL       0.2102
     44 H6         -4.2330   19.0711   15.7631 H           1 MOL       0.0749
     45 H7         -9.2627   22.6926    8.4338 H           1 MOL       0.0446
     46 H8         -9.7021   21.2637    9.3766 H           1 MOL       0.0446
     47 H9         -8.3193   21.2030    8.2572 H           1 MOL       0.0446
     48 H10        -6.4068   18.6393   12.1931 H           1 MOL       0.1373
     49 H11        -6.7702   19.5049   17.0492 H           1 MOL       0.0477
     50 H12        -4.1887   19.1090   18.2819 H           1 MOL       0.0470
     51 H13        -6.8458   18.1902   19.2013 H           1 MOL       0.0643
     52 H14        -6.1565   19.6068   19.9915 H           1 MOL       0.0643
     53 H15        -4.8157   18.2729   21.1232 H           1 MOL       0.1864
     54 H16        -5.0479   14.2123   20.9391 H           1 MOL       0.0555
     55 H17        -1.5752   13.9815   23.3049 H           1 MOL       0.0543
     56 H18        -2.2150   11.5884   21.5307 H           1 MOL       0.0601
     57 H19        -2.9027    9.3717   22.1952 H           1 MOL       0.0602
     58 H20        -5.4083   13.2293   23.7628 H           1 MOL       0.0601
     59 H21        -6.0758   11.0104   24.4281 H           1 MOL       0.0602
     60 H22        -2.0836   18.2741   21.9533 H           1 MOL       0.2479
     61 H23        -0.9621   17.1979   23.2476 H           1 MOL       0.2443
     62 H24        -6.7696   24.9991   11.4636 H           1 MOL       0.1019
@<TRIPOS>BOND
     1     1     2   1
     2    10     1   1
     3     1    13   1
     4     2     3   1
     5     2     4   1
     6     4     5   1
     7     6     4   1
     8    13     6   1
     9     6    14   1
    10    35     7   1
    11     8     9   2
    12    12     8   1
    13    10     9   1
    14    11    10   1
    15    12    11  ar
    16    11    38  ar
    17    12    35  ar
    18    14    15   2
    19    15    16   1
    20    16    17   1
    21    17    18  am
    22    18    19   2
    23    18    20   1
    24    20    21  ar
    25    20    31  ar
    26    21    22  ar
    27    22    23  ar
    28    22    24   1
    29    23    33  ar
    30    24    25  ar
    31    24    27  ar
    32    25    26  ar
    33    26    29  ar
    34    27    28  ar
    35    28    29  ar
    36    29    30   1
    37    31    32   1
    38    31    33  ar
    39    33    34   1
    40    35    36  ar
    41    36    37  ar
    42    37    38  ar
    43     1    39   1
    44     2    40   1
    45     3    41   1
    46     4    42   1
    47     5    43   1
    48     6    44   1
    49     7    45   1
    50     7    46   1
    51     7    47   1
    52     9    48   1
    53    14    49   1
    54    15    50   1
    55    16    51   1
    56    16    52   1
    57    17    53   1
    58    21    54   1
    59    23    55   1
    60    25    56   1
    61    26    57   1
    62    27    58   1
    63    28    59   1
    64    32    60   1
    65    34    61   1
    66    37    62   1
@<TRIPOS>SUBSTRUCTURE
     1  MOL      1

