@<TRIPOS>MOLECULE
3nw9_ligand_053
    62    66
SMALL
GAST_HUCK
****
This file was generated by PARSER (from files_GN.cpp)

@<TRIPOS>ATOM
      1 C1         -1.6012   10.6975   17.7335 C.3         1 MOL       0.2034
      2 C2         -1.9806   12.1832   17.9253 C.3         1 MOL       0.1402
      3 O3         -2.9793   12.3962   18.9223 O.3         1 MOL      -0.3834
      4 C4         -2.4501   12.5897   16.5197 C.3         1 MOL       0.1189
      5 O5         -3.8364   12.2778   16.3364 O.3         1 MOL      -0.3846
      6 C6         -1.5805   11.7099   15.5931 C.3         1 MOL       0.1082
      7 C7          3.3641    8.6598   20.7142 C.3         1 MOL      -0.0106
      8 N8          0.4516    9.7008   20.5357 N.2         1 MOL      -0.2933
      9 C9         -0.6862   10.1571   19.9807 C.2         1 MOL       0.1151
     10 N10        -0.5761   10.2427   18.6357 N.pl3       1 MOL      -0.1882
     11 C11         0.6582    9.7996   18.3321 C.ar        1 MOL       0.1683
     12 C12         1.2984    9.4714   19.5238 C.ar        1 MOL       0.0876
     13 O13        -1.2298   10.5442   16.3493 O.3         1 MOL      -0.3296
     14 C14        -0.3864   12.3428   15.0397 C.2         1 MOL      -0.0658
     15 C15         0.6682   12.7845   15.7518 C.2         1 MOL      -0.0744
     16 C16         1.8603   13.3782   15.1728 C.3         1 MOL       0.0471
     17 N17         1.7523   14.7876   14.9578 N.am        1 MOL      -0.2802
     18 C18         0.9773   15.4051   14.0812 C.2         1 MOL       0.1986
     19 O19         0.2648   14.7813   13.3041 O.2         1 MOL      -0.3908
     20 C20         0.8597   16.7845   14.1071 C.ar        1 MOL       0.0720
     21 C21        -0.4286   17.3748   14.1163 C.ar        1 MOL      -0.0533
     22 C22        -0.6172   18.7787   14.1691 C.ar        1 MOL      -0.0339
     23 C23         0.5397   19.5963   14.2027 C.ar        1 MOL      -0.0299
     24 C24        -1.9329   19.3444   14.1737 C.ar        1 MOL      -0.0299
     25 C25        -2.9658   18.8014   13.3621 C.ar        1 MOL      -0.0581
     26 C26        -4.2636   19.3397   13.3774 C.ar        1 MOL      -0.0288
     27 C27        -2.2587   20.4449   15.0064 C.ar        1 MOL      -0.0581
     28 C28        -3.5556   20.9885   15.0181 C.ar        1 MOL      -0.0288
     29 C29        -4.5613   20.4329   14.2072 C.ar        1 MOL       0.1316
     30 F30        -5.7644   20.9374   14.2210 F           1 MOL      -0.1840
     31 C31         1.9939   17.6320   14.1369 C.ar        1 MOL       0.1393
     32 O32         3.2461   17.1032   14.0246 O.3         1 MOL      -0.3302
     33 C33         1.8299   19.0348   14.1908 C.ar        1 MOL       0.1232
     34 O34         2.9041   19.8670   14.2063 O.3         1 MOL      -0.3356
     35 C35         2.6241    8.9977   19.4861 C.ar        1 MOL       0.0444
     36 N38         3.2115    8.8557   18.2637 N.ar        1 MOL      -0.2825
     37 C39         2.5689    9.1694   17.1058 C.ar        1 MOL       0.0619
     38 N40         1.2950    9.6390   17.1441 N.ar        1 MOL      -0.2608
     39 H1         -2.4905   10.0791   17.8862 H           1 MOL       0.0998
     40 H2         -1.1051   12.7748   18.2011 H           1 MOL       0.0678
     41 H3         -2.5208   12.2682   19.7790 H           1 MOL       0.2101
     42 H4         -2.3104   13.6583   16.3405 H           1 MOL       0.0667
     43 H5         -4.3252   12.8831   16.9348 H           1 MOL       0.2102
     44 H6         -2.1992   11.3675   14.7550 H           1 MOL       0.0749
     45 H7          4.3865    8.3506   20.4837 H           1 MOL       0.0446
     46 H8          2.8603    7.8436   21.2367 H           1 MOL       0.0446
     47 H9          3.4053    9.5297   21.3705 H           1 MOL       0.0446
     48 H10        -1.5172   10.4046   20.5209 H           1 MOL       0.1373
     49 H11        -0.3542   12.4199   14.0543 H           1 MOL       0.0477
     50 H12         0.6543   12.6507   16.7307 H           1 MOL       0.0470
     51 H13         2.1442   12.8745   14.2473 H           1 MOL       0.0643
     52 H14         2.6781   13.2344   15.8797 H           1 MOL       0.0643
     53 H15         2.3111   15.3629   15.5025 H           1 MOL       0.1864
     54 H16        -1.2521   16.7645   14.1317 H           1 MOL       0.0555
     55 H17         0.4502   20.6176   14.2136 H           1 MOL       0.0543
     56 H18        -2.7740   18.0172   12.7357 H           1 MOL       0.0601
     57 H19        -4.9891   18.9280   12.7865 H           1 MOL       0.0602
     58 H20        -1.5520   20.8564   15.6250 H           1 MOL       0.0601
     59 H21        -3.7667   21.7803   15.6286 H           1 MOL       0.0602
     60 H22         3.6616   17.6137   13.3039 H           1 MOL       0.2479
     61 H23         3.3200   19.7296   13.3309 H           1 MOL       0.2443
     62 H24         3.0357    9.0431   16.2082 H           1 MOL       0.1019
@<TRIPOS>BOND
     1     1     2   1
     2    10     1   1
     3     1    13   1
     4     2     3   1
     5     2     4   1
     6     4     5   1
     7     6     4   1
     8    13     6   1
     9     6    14   1
    10    35     7   1
    11     8     9   2
    12    12     8   1
    13    10     9   1
    14    11    10   1
    15    12    11  ar
    16    11    38  ar
    17    12    35  ar
    18    14    15   2
    19    15    16   1
    20    16    17   1
    21    17    18  am
    22    18    19   2
    23    18    20   1
    24    20    21  ar
    25    20    31  ar
    26    21    22  ar
    27    22    23  ar
    28    22    24   1
    29    23    33  ar
    30    24    25  ar
    31    24    27  ar
    32    25    26  ar
    33    26    29  ar
    34    27    28  ar
    35    28    29  ar
    36    29    30   1
    37    31    32   1
    38    31    33  ar
    39    33    34   1
    40    35    36  ar
    41    36    37  ar
    42    37    38  ar
    43     1    39   1
    44     2    40   1
    45     3    41   1
    46     4    42   1
    47     5    43   1
    48     6    44   1
    49     7    45   1
    50     7    46   1
    51     7    47   1
    52     9    48   1
    53    14    49   1
    54    15    50   1
    55    16    51   1
    56    16    52   1
    57    17    53   1
    58    21    54   1
    59    23    55   1
    60    25    56   1
    61    26    57   1
    62    27    58   1
    63    28    59   1
    64    32    60   1
    65    34    61   1
    66    37    62   1
@<TRIPOS>SUBSTRUCTURE
     1  MOL      1

