@<TRIPOS>MOLECULE
3nw9_ligand_019
    62    66
SMALL
GAST_HUCK
****
This file was generated by PARSER (from files_GN.cpp)

@<TRIPOS>ATOM
      1 C1         -6.0836   20.2587   14.7405 C.3         1 MOL       0.2034
      2 C2         -5.3671   21.4805   14.1115 C.3         1 MOL       0.1402
      3 O3         -6.2239   22.5848   13.8177 O.3         1 MOL      -0.3834
      4 C4         -4.7202   20.8796   12.8512 C.3         1 MOL       0.1189
      5 O5         -5.5705   20.9748   11.7045 O.3         1 MOL      -0.3846
      6 C6         -4.4851   19.3986   13.2540 C.3         1 MOL       0.1082
      7 C7         -7.1098   19.4542   20.7464 C.3         1 MOL      -0.0106
      8 N8         -6.9522   21.1317   18.1481 N.2         1 MOL      -0.2933
      9 C9         -6.7614   21.4266   16.8485 C.2         1 MOL       0.1151
     10 N10        -6.3751   20.3334   16.1515 N.pl3       1 MOL      -0.1882
     11 C11        -6.3670   19.3139   17.0375 C.ar        1 MOL       0.1683
     12 C12        -6.7073   19.8245   18.2864 C.ar        1 MOL       0.0876
     13 O13        -5.1929   19.1606   14.4782 O.3         1 MOL      -0.3296
     14 C14        -3.0806   19.0576   13.4244 C.2         1 MOL      -0.0658
     15 C15        -2.3123   19.5728   14.4055 C.2         1 MOL      -0.0744
     16 C16        -0.9111   19.2579   14.5780 C.3         1 MOL       0.0471
     17 N17        -0.7331   17.8427   14.6817 N.am        1 MOL      -0.2802
     18 C18         0.1657   17.1031   14.0509 C.2         1 MOL       0.1986
     19 O19         1.0560   17.6410   13.4011 O.2         1 MOL      -0.3908
     20 C20         0.0928   15.7141   14.1083 C.ar        1 MOL       0.0720
     21 C21        -1.1687   15.0642   14.0869 C.ar        1 MOL      -0.0533
     22 C22        -1.2763   13.6568   14.0816 C.ar        1 MOL      -0.0339
     23 C23        -0.0950   12.8850   14.1181 C.ar        1 MOL      -0.0299
     24 C24        -2.5506   13.0278   14.0203 C.ar        1 MOL      -0.0299
     25 C25        -3.5473   13.3131   14.9832 C.ar        1 MOL      -0.0581
     26 C26        -4.8027   12.6785   14.9240 C.ar        1 MOL      -0.0288
     27 C27        -2.8440   12.1025   12.9909 C.ar        1 MOL      -0.0581
     28 C28        -4.1047   11.4788   12.9228 C.ar        1 MOL      -0.0288
     29 C29        -5.0827   11.7630   13.8933 C.ar        1 MOL       0.1316
     30 F30        -6.2466   11.1742   13.8387 F           1 MOL      -0.1840
     31 C31         1.2591   14.9069   14.1415 C.ar        1 MOL       0.1393
     32 O32         2.4916   15.4641   14.1618 O.3         1 MOL      -0.3302
     33 C33         1.1683   13.5002   14.1538 C.ar        1 MOL       0.1232
     34 O34         2.2754   12.7144   14.2022 O.3         1 MOL      -0.3356
     35 C35        -6.7535   18.9676   19.4027 C.ar        1 MOL       0.0444
     36 N38        -6.4686   17.6498   19.1979 N.ar        1 MOL      -0.2825
     37 C39        -6.1465   17.1562   17.9697 C.ar        1 MOL       0.0619
     38 N40        -6.1108   17.9863   16.8962 N.ar        1 MOL      -0.2608
     39 H1         -7.0229   20.0744   14.2090 H           1 MOL       0.0998
     40 H2         -4.5839   21.8339   14.7902 H           1 MOL       0.0678
     41 H3         -6.9190   22.2230   13.2297 H           1 MOL       0.2101
     42 H4         -3.7913   21.4072   12.6119 H           1 MOL       0.0667
     43 H5         -6.3969   20.5046   11.9451 H           1 MOL       0.2102
     44 H6         -4.9202   18.7326   12.5029 H           1 MOL       0.0749
     45 H7         -7.1202   18.6390   21.4718 H           1 MOL       0.0446
     46 H8         -8.1010   19.9085   20.7205 H           1 MOL       0.0446
     47 H9         -6.3829   20.1989   21.0714 H           1 MOL       0.0446
     48 H10        -6.8895   22.3617   16.4595 H           1 MOL       0.1373
     49 H11        -2.6738   18.4118   12.7845 H           1 MOL       0.0477
     50 H12        -2.7252   20.1948   15.0623 H           1 MOL       0.0470
     51 H13        -0.5470   19.7095   15.5050 H           1 MOL       0.0643
     52 H14        -0.3476   19.6915   13.7471 H           1 MOL       0.0643
     53 H15        -1.3521   17.3720   15.2626 H           1 MOL       0.1864
     54 H16        -2.0247   15.6273   14.0354 H           1 MOL       0.0555
     55 H17        -0.1492   11.8627   14.1367 H           1 MOL       0.0543
     56 H18        -3.3605   13.9705   15.7457 H           1 MOL       0.0601
     57 H19        -5.5086   12.8835   15.6360 H           1 MOL       0.0602
     58 H20        -2.1468   11.8812   12.2767 H           1 MOL       0.0601
     59 H21        -4.3029   10.8188   12.1673 H           1 MOL       0.0602
     60 H22         2.5334   15.9732   15.0020 H           1 MOL       0.2479
     61 H23         2.9994   13.2701   14.5633 H           1 MOL       0.2443
     62 H24        -5.9501   16.1597   17.8548 H           1 MOL       0.1019
@<TRIPOS>BOND
     1     1     2   1
     2    10     1   1
     3     1    13   1
     4     2     3   1
     5     2     4   1
     6     4     5   1
     7     6     4   1
     8    13     6   1
     9     6    14   1
    10    35     7   1
    11     8     9   2
    12    12     8   1
    13    10     9   1
    14    11    10   1
    15    12    11  ar
    16    11    38  ar
    17    12    35  ar
    18    14    15   2
    19    15    16   1
    20    16    17   1
    21    17    18  am
    22    18    19   2
    23    18    20   1
    24    20    21  ar
    25    20    31  ar
    26    21    22  ar
    27    22    23  ar
    28    22    24   1
    29    23    33  ar
    30    24    25  ar
    31    24    27  ar
    32    25    26  ar
    33    26    29  ar
    34    27    28  ar
    35    28    29  ar
    36    29    30   1
    37    31    32   1
    38    31    33  ar
    39    33    34   1
    40    35    36  ar
    41    36    37  ar
    42    37    38  ar
    43     1    39   1
    44     2    40   1
    45     3    41   1
    46     4    42   1
    47     5    43   1
    48     6    44   1
    49     7    45   1
    50     7    46   1
    51     7    47   1
    52     9    48   1
    53    14    49   1
    54    15    50   1
    55    16    51   1
    56    16    52   1
    57    17    53   1
    58    21    54   1
    59    23    55   1
    60    25    56   1
    61    26    57   1
    62    27    58   1
    63    28    59   1
    64    32    60   1
    65    34    61   1
    66    37    62   1
@<TRIPOS>SUBSTRUCTURE
     1  MOL      1

