@<TRIPOS>MOLECULE
3nw9_ligand_069
    62    66
SMALL
GAST_HUCK
****
This file was generated by PARSER (from files_GN.cpp)

@<TRIPOS>ATOM
      1 C1         -5.6214   16.9714   20.1455 C.3         1 MOL       0.2034
      2 C2         -5.5286   18.2499   19.2831 C.3         1 MOL       0.1402
      3 O3         -6.2734   19.3391   19.8327 O.3         1 MOL      -0.3834
      4 C4         -6.0251   17.7970   17.8913 C.3         1 MOL       0.1189
      5 O5         -7.2665   18.3858   17.4984 O.3         1 MOL      -0.3846
      6 C6         -6.1822   16.2610   18.0343 C.3         1 MOL       0.1082
      7 C7         -2.3348   17.1509   25.3254 C.3         1 MOL      -0.0106
      8 N8         -2.7526   16.5530   22.3075 N.2         1 MOL      -0.2933
      9 C9         -3.3810   16.4680   21.1202 C.2         1 MOL       0.1151
     10 N10        -4.6507   16.9231   21.2054 N.pl3       1 MOL      -0.1882
     11 C11        -4.8255   17.3228   22.4796 C.ar        1 MOL       0.1683
     12 C12        -3.6355   17.0839   23.1646 C.ar        1 MOL       0.0876
     13 O13        -5.4502   15.8920   19.2120 O.3         1 MOL      -0.3296
     14 C14        -5.7656   15.4875   16.8727 C.2         1 MOL      -0.0658
     15 C15        -4.4936   15.3878   16.4483 C.2         1 MOL      -0.0744
     16 C16        -4.1183   14.5807   15.2996 C.3         1 MOL       0.0471
     17 N17        -2.7249   14.2565   15.3022 N.am        1 MOL      -0.2802
     18 C18        -2.1269   13.4503   14.4401 C.2         1 MOL       0.1986
     19 O19        -2.7361   12.8674   13.5504 O.2         1 MOL      -0.3908
     20 C20        -0.7960   13.1544   14.6250 C.ar        1 MOL       0.0720
     21 C21        -0.4371   11.9314   15.2343 C.ar        1 MOL      -0.0533
     22 C22         0.9187   11.5863   15.4262 C.ar        1 MOL      -0.0339
     23 C23         1.9210   12.4817   14.9873 C.ar        1 MOL      -0.0299
     24 C24         1.2650   10.3596   16.0456 C.ar        1 MOL      -0.0299
     25 C25         2.0445    9.4031   15.3547 C.ar        1 MOL      -0.0581
     26 C26         2.3833    8.1828   15.9667 C.ar        1 MOL      -0.0288
     27 C27         0.8276   10.0657   17.3597 C.ar        1 MOL      -0.0581
     28 C28         1.1712    8.8464   17.9717 C.ar        1 MOL      -0.0288
     29 C29         1.9503    7.9030   17.2763 C.ar        1 MOL       0.1316
     30 F30         2.2716    6.7728   17.8432 F           1 MOL      -0.1840
     31 C31         0.2199   14.0504   14.2155 C.ar        1 MOL       0.1393
     32 O32        -0.0847   15.2363   13.6305 O.3         1 MOL      -0.3302
     33 C33         1.5760   13.7099   14.3912 C.ar        1 MOL       0.1232
     34 O34         2.5400   14.5705   13.9724 O.3         1 MOL      -0.3356
     35 C35        -3.5525   17.4075   24.5340 C.ar        1 MOL       0.0444
     36 N38        -4.6544   17.9591   25.1181 N.ar        1 MOL      -0.2825
     37 C39        -5.8059   18.1961   24.4302 C.ar        1 MOL       0.0619
     38 N40        -5.8924   17.8740   23.1110 N.ar        1 MOL      -0.2608
     39 H1         -6.6277   16.8877   20.5747 H           1 MOL       0.0998
     40 H2         -4.4834   18.5651   19.2055 H           1 MOL       0.0678
     41 H3         -7.2009   19.0255   19.8798 H           1 MOL       0.2101
     42 H4         -5.2778   18.0614   17.1368 H           1 MOL       0.0667
     43 H5         -7.0849   19.3456   17.4217 H           1 MOL       0.2102
     44 H6         -7.2367   16.0266   18.2304 H           1 MOL       0.0749
     45 H7         -2.4641   17.4767   26.3597 H           1 MOL       0.0446
     46 H8         -1.4887   17.6899   24.8981 H           1 MOL       0.0446
     47 H9         -2.1111   16.0828   25.3233 H           1 MOL       0.0446
     48 H10        -2.9429   16.0983   20.2736 H           1 MOL       0.1373
     49 H11        -6.4701   14.9855   16.3795 H           1 MOL       0.0477
     50 H12        -3.7827   15.8796   16.9418 H           1 MOL       0.0470
     51 H13        -4.3610   15.1324   14.3876 H           1 MOL       0.0643
     52 H14        -4.6888   13.6463   15.3063 H           1 MOL       0.0643
     53 H15        -2.1783   14.6189   16.0177 H           1 MOL       0.1864
     54 H16        -1.1715   11.2831   15.5388 H           1 MOL       0.0555
     55 H17         2.9096   12.2473   15.1135 H           1 MOL       0.0543
     56 H18         2.3576    9.5818   14.3959 H           1 MOL       0.0601
     57 H19         2.9464    7.4995   15.4567 H           1 MOL       0.0602
     58 H20         0.2669   10.7426   17.8848 H           1 MOL       0.0601
     59 H21         0.8538    8.6480   18.9238 H           1 MOL       0.0602
     60 H22        -0.4114   15.7952   14.3688 H           1 MOL       0.2479
     61 H23         3.3647   14.2982   14.4233 H           1 MOL       0.2443
     62 H24        -6.6066   18.6118   24.9070 H           1 MOL       0.1019
@<TRIPOS>BOND
     1     1     2   1
     2    10     1   1
     3     1    13   1
     4     2     3   1
     5     2     4   1
     6     4     5   1
     7     6     4   1
     8    13     6   1
     9     6    14   1
    10    35     7   1
    11     8     9   2
    12    12     8   1
    13    10     9   1
    14    11    10   1
    15    12    11  ar
    16    11    38  ar
    17    12    35  ar
    18    14    15   2
    19    15    16   1
    20    16    17   1
    21    17    18  am
    22    18    19   2
    23    18    20   1
    24    20    21  ar
    25    20    31  ar
    26    21    22  ar
    27    22    23  ar
    28    22    24   1
    29    23    33  ar
    30    24    25  ar
    31    24    27  ar
    32    25    26  ar
    33    26    29  ar
    34    27    28  ar
    35    28    29  ar
    36    29    30   1
    37    31    32   1
    38    31    33  ar
    39    33    34   1
    40    35    36  ar
    41    36    37  ar
    42    37    38  ar
    43     1    39   1
    44     2    40   1
    45     3    41   1
    46     4    42   1
    47     5    43   1
    48     6    44   1
    49     7    45   1
    50     7    46   1
    51     7    47   1
    52     9    48   1
    53    14    49   1
    54    15    50   1
    55    16    51   1
    56    16    52   1
    57    17    53   1
    58    21    54   1
    59    23    55   1
    60    25    56   1
    61    26    57   1
    62    27    58   1
    63    28    59   1
    64    32    60   1
    65    34    61   1
    66    37    62   1
@<TRIPOS>SUBSTRUCTURE
     1  MOL      1

