@<TRIPOS>MOLECULE
3nw9_ligand_017
    62    66
SMALL
GAST_HUCK
****
This file was generated by PARSER (from files_GN.cpp)

@<TRIPOS>ATOM
      1 C1          2.3876    9.2213   17.4420 C.3         1 MOL       0.2034
      2 C2          1.6164    8.2335   16.5432 C.3         1 MOL       0.1402
      3 O3          2.0998    6.8966   16.6873 O.3         1 MOL      -0.3834
      4 C4          1.8500    8.8405   15.1509 C.3         1 MOL       0.1189
      5 O5          3.0573    8.3382   14.5787 O.3         1 MOL      -0.3846
      6 C6          1.9808   10.3583   15.4379 C.3         1 MOL       0.1082
      7 C7          1.3492    9.6148   23.4496 C.3         1 MOL      -0.0106
      8 N8          0.5393    9.8042   20.4844 N.2         1 MOL      -0.2933
      9 C9          0.6518    9.7420   19.1460 C.2         1 MOL       0.1151
     10 N10         1.8878    9.3310   18.7809 N.pl3       1 MOL      -0.1882
     11 C11         2.5835    9.1526   19.9163 C.ar        1 MOL       0.1683
     12 C12         1.7306    9.4416   20.9773 C.ar        1 MOL       0.0876
     13 O13         2.3095   10.5092   16.8216 O.3         1 MOL      -0.3296
     14 C14         0.7534   11.1104   15.2261 C.2         1 MOL      -0.0658
     15 C15         0.6635   12.1976   14.4437 C.2         1 MOL      -0.0744
     16 C16        -0.5648   12.9528   14.2883 C.3         1 MOL       0.0471
     17 N17        -0.2967   14.3540   14.3717 N.am        1 MOL      -0.2802
     18 C18        -1.0018   15.3102   13.7777 C.2         1 MOL       0.1986
     19 O19        -2.0066   15.0051   13.1430 O.2         1 MOL      -0.3908
     20 C20        -0.6518   16.6591   13.9015 C.ar        1 MOL       0.0720
     21 C21        -1.6811   17.6373   13.9286 C.ar        1 MOL      -0.0533
     22 C22        -1.3903   19.0045   14.1070 C.ar        1 MOL      -0.0339
     23 C23        -0.0540   19.4203   14.2409 C.ar        1 MOL      -0.0299
     24 C24        -2.4334   19.9441   14.1763 C.ar        1 MOL      -0.0299
     25 C25        -2.9664   20.3324   15.4256 C.ar        1 MOL      -0.0581
     26 C26        -4.0352   21.2471   15.4848 C.ar        1 MOL      -0.0288
     27 C27        -2.9646   20.4946   12.9908 C.ar        1 MOL      -0.0581
     28 C28        -4.0333   21.4073   13.0500 C.ar        1 MOL      -0.0288
     29 C29        -4.5762   21.7768   14.2961 C.ar        1 MOL       0.1316
     30 F30        -5.5872   22.6005   14.3475 F           1 MOL      -0.1840
     31 C31         0.6971   17.1059   14.0269 C.ar        1 MOL       0.1393
     32 O32         1.7537   16.2509   13.9269 O.3         1 MOL      -0.3302
     33 C33         0.9866   18.4784   14.2060 C.ar        1 MOL       0.1232
     34 O34         2.2596   18.9335   14.3498 O.3         1 MOL      -0.3356
     35 C35         2.2190    9.3465   22.2930 C.ar        1 MOL       0.0444
     36 N38         3.5289    9.0042   22.4589 N.ar        1 MOL      -0.2825
     37 C39         4.3543    8.7428   21.4065 C.ar        1 MOL       0.0619
     38 N40         3.8794    8.8153   20.1347 N.ar        1 MOL      -0.2608
     39 H1          3.4444    8.9322   17.4522 H           1 MOL       0.0998
     40 H2          0.5451    8.2458   16.7719 H           1 MOL       0.0678
     41 H3          1.5546    6.3538   16.0793 H           1 MOL       0.2101
     42 H4          1.0238    8.6002   14.4738 H           1 MOL       0.0667
     43 H5          3.0921    8.7424   13.6856 H           1 MOL       0.2102
     44 H6          2.8050   10.7785   14.8540 H           1 MOL       0.0749
     45 H7          1.8973    9.5016   24.3862 H           1 MOL       0.0446
     46 H8          0.5121    8.9144   23.4486 H           1 MOL       0.0446
     47 H9          0.9615   10.6331   23.3913 H           1 MOL       0.0446
     48 H10        -0.0962   10.0072   18.5016 H           1 MOL       0.1373
     49 H11        -0.0567   10.8089   15.7205 H           1 MOL       0.0477
     50 H12         1.4561   12.4841   13.9070 H           1 MOL       0.0470
     51 H13        -1.3119   12.7046   15.0501 H           1 MOL       0.0643
     52 H14        -0.9755   12.7005   13.3096 H           1 MOL       0.0643
     53 H15         0.4682   14.6269   14.9034 H           1 MOL       0.1864
     54 H16        -2.6648   17.3535   13.8539 H           1 MOL       0.0555
     55 H17         0.1666   20.4107   14.3745 H           1 MOL       0.0543
     56 H18        -2.5910   19.9450   16.2966 H           1 MOL       0.0601
     57 H19        -4.4201   21.5223   16.3935 H           1 MOL       0.0602
     58 H20        -2.5708   20.2440   12.0805 H           1 MOL       0.0601
     59 H21        -4.4147   21.7986   12.1843 H           1 MOL       0.0602
     60 H22         2.2097   16.3150   14.7930 H           1 MOL       0.2479
     61 H23         2.6546   18.4267   15.0915 H           1 MOL       0.2443
     62 H24         5.3322    8.5026   21.5696 H           1 MOL       0.1019
@<TRIPOS>BOND
     1     1     2   1
     2    10     1   1
     3     1    13   1
     4     2     3   1
     5     2     4   1
     6     4     5   1
     7     6     4   1
     8    13     6   1
     9     6    14   1
    10    35     7   1
    11     8     9   2
    12    12     8   1
    13    10     9   1
    14    11    10   1
    15    12    11  ar
    16    11    38  ar
    17    12    35  ar
    18    14    15   2
    19    15    16   1
    20    16    17   1
    21    17    18  am
    22    18    19   2
    23    18    20   1
    24    20    21  ar
    25    20    31  ar
    26    21    22  ar
    27    22    23  ar
    28    22    24   1
    29    23    33  ar
    30    24    25  ar
    31    24    27  ar
    32    25    26  ar
    33    26    29  ar
    34    27    28  ar
    35    28    29  ar
    36    29    30   1
    37    31    32   1
    38    31    33  ar
    39    33    34   1
    40    35    36  ar
    41    36    37  ar
    42    37    38  ar
    43     1    39   1
    44     2    40   1
    45     3    41   1
    46     4    42   1
    47     5    43   1
    48     6    44   1
    49     7    45   1
    50     7    46   1
    51     7    47   1
    52     9    48   1
    53    14    49   1
    54    15    50   1
    55    16    51   1
    56    16    52   1
    57    17    53   1
    58    21    54   1
    59    23    55   1
    60    25    56   1
    61    26    57   1
    62    27    58   1
    63    28    59   1
    64    32    60   1
    65    34    61   1
    66    37    62   1
@<TRIPOS>SUBSTRUCTURE
     1  MOL      1

