@<TRIPOS>MOLECULE
3nw9_ligand_058
    62    66
SMALL
GAST_HUCK
****
This file was generated by PARSER (from files_GN.cpp)

@<TRIPOS>ATOM
      1 C1          2.8205    8.3265   18.7557 C.3         1 MOL       0.2034
      2 C2          1.7643    7.2253   18.5341 C.3         1 MOL       0.1402
      3 O3          2.2584    5.9347   18.8895 O.3         1 MOL      -0.3834
      4 C4          1.4160    7.3853   17.0420 C.3         1 MOL       0.1189
      5 O5          2.1051    6.4373   16.2225 O.3         1 MOL      -0.3846
      6 C6          1.8816    8.8335   16.7150 C.3         1 MOL       0.1082
      7 C7          2.3516   10.3789   24.5159 C.3         1 MOL      -0.0106
      8 N8          3.8538    9.0913   22.1303 N.2         1 MOL      -0.2933
      9 C9          4.0666    8.6216   20.8872 C.2         1 MOL       0.1151
     10 N10         2.9569    8.7424   20.1239 N.pl3       1 MOL      -0.1882
     11 C11         2.0246    9.3244   20.9003 C.ar        1 MOL       0.1683
     12 C12         2.5883    9.5287   22.1572 C.ar        1 MOL       0.0876
     13 O13         2.3869    9.4126   17.9299 O.3         1 MOL      -0.3296
     14 C14         0.8462    9.6820   16.1438 C.2         1 MOL      -0.0658
     15 C15        -0.2424   10.0852   16.8186 C.2         1 MOL      -0.0744
     16 C16        -1.2938   10.8670   16.1970 C.3         1 MOL       0.0471
     17 N17        -0.7966   12.1409   15.7767 N.am        1 MOL      -0.2802
     18 C18        -1.3710   12.9518   14.8991 C.2         1 MOL       0.1986
     19 O19        -2.4317   12.6244   14.3786 O.2         1 MOL      -0.3908
     20 C20        -0.7980   14.1827   14.5718 C.ar        1 MOL       0.0720
     21 C21        -1.6466   15.2871   14.3016 C.ar        1 MOL      -0.0533
     22 C22        -1.1544   16.5729   13.9499 C.ar        1 MOL      -0.0339
     23 C23         0.2550   16.7099   13.8551 C.ar        1 MOL      -0.0299
     24 C24        -2.0416   17.6921   13.7250 C.ar        1 MOL      -0.0299
     25 C25        -3.3759   17.5146   13.2612 C.ar        1 MOL      -0.0581
     26 C26        -4.2498   18.6025   13.0831 C.ar        1 MOL      -0.0288
     27 C27        -1.6308   19.0309   13.9841 C.ar        1 MOL      -0.0581
     28 C28        -2.4864   20.1254   13.7614 C.ar        1 MOL      -0.0288
     29 C29        -3.8017   19.9127   13.3177 C.ar        1 MOL       0.1316
     30 F30        -4.6014   20.9249   13.1185 F           1 MOL      -0.1840
     31 C31         0.6076   14.3839   14.5129 C.ar        1 MOL       0.1393
     32 O32         1.4851   13.3623   14.7383 O.3         1 MOL      -0.3302
     33 C33         1.1199   15.6435   14.1542 C.ar        1 MOL       0.1232
     34 O34         2.4524   15.8372   14.0546 O.3         1 MOL      -0.3356
     35 C35         1.8113   10.1259   23.1695 C.ar        1 MOL       0.0444
     36 N38         0.5305   10.4766   22.8592 N.ar        1 MOL      -0.2825
     37 C39        -0.0036   10.2721   21.6240 C.ar        1 MOL       0.0619
     38 N40         0.7437    9.6963   20.6441 N.ar        1 MOL      -0.2608
     39 H1          3.7881    7.9724   18.3779 H           1 MOL       0.0998
     40 H2          0.8714    7.4286   19.1308 H           1 MOL       0.0678
     41 H3          1.5158    5.3195   18.7098 H           1 MOL       0.2101
     42 H4          0.3409    7.2412   16.8902 H           1 MOL       0.0667
     43 H5          1.7485    5.5617   16.4833 H           1 MOL       0.2102
     44 H6          2.7196    8.7937   16.0092 H           1 MOL       0.0749
     45 H7          1.5978   10.8363   25.1604 H           1 MOL       0.0446
     46 H8          3.2058   11.0545   24.4487 H           1 MOL       0.0446
     47 H9          2.6722    9.4395   24.9692 H           1 MOL       0.0446
     48 H10         4.9559    8.2240   20.5767 H           1 MOL       0.1373
     49 H11         0.9557    9.9673   15.1959 H           1 MOL       0.0477
     50 H12        -0.3541    9.8180   17.7707 H           1 MOL       0.0470
     51 H13        -2.1121   11.0286   16.9006 H           1 MOL       0.0643
     52 H14        -1.6825   10.2986   15.3470 H           1 MOL       0.0643
     53 H15         0.0342   12.4426   16.1789 H           1 MOL       0.1864
     54 H16        -2.6533   15.1533   14.4266 H           1 MOL       0.0555
     55 H17         0.6792   17.5900   13.5498 H           1 MOL       0.0543
     56 H18        -3.7414   16.5888   13.0301 H           1 MOL       0.0601
     57 H19        -5.2113   18.4358   12.7729 H           1 MOL       0.0602
     58 H20        -0.7019   19.2368   14.3571 H           1 MOL       0.0601
     59 H21        -2.1522   21.0772   13.9403 H           1 MOL       0.0602
     60 H22         2.3610   13.7676   14.9308 H           1 MOL       0.2479
     61 H23         2.6905   16.3243   14.8690 H           1 MOL       0.2443
     62 H24        -0.9672   10.5483   21.4330 H           1 MOL       0.1019
@<TRIPOS>BOND
     1     1     2   1
     2    10     1   1
     3     1    13   1
     4     2     3   1
     5     2     4   1
     6     4     5   1
     7     6     4   1
     8    13     6   1
     9     6    14   1
    10    35     7   1
    11     8     9   2
    12    12     8   1
    13    10     9   1
    14    11    10   1
    15    12    11  ar
    16    11    38  ar
    17    12    35  ar
    18    14    15   2
    19    15    16   1
    20    16    17   1
    21    17    18  am
    22    18    19   2
    23    18    20   1
    24    20    21  ar
    25    20    31  ar
    26    21    22  ar
    27    22    23  ar
    28    22    24   1
    29    23    33  ar
    30    24    25  ar
    31    24    27  ar
    32    25    26  ar
    33    26    29  ar
    34    27    28  ar
    35    28    29  ar
    36    29    30   1
    37    31    32   1
    38    31    33  ar
    39    33    34   1
    40    35    36  ar
    41    36    37  ar
    42    37    38  ar
    43     1    39   1
    44     2    40   1
    45     3    41   1
    46     4    42   1
    47     5    43   1
    48     6    44   1
    49     7    45   1
    50     7    46   1
    51     7    47   1
    52     9    48   1
    53    14    49   1
    54    15    50   1
    55    16    51   1
    56    16    52   1
    57    17    53   1
    58    21    54   1
    59    23    55   1
    60    25    56   1
    61    26    57   1
    62    27    58   1
    63    28    59   1
    64    32    60   1
    65    34    61   1
    66    37    62   1
@<TRIPOS>SUBSTRUCTURE
     1  MOL      1

