@<TRIPOS>MOLECULE
3nw9_ligand_013
    62    66
SMALL
GAST_HUCK
****
This file was generated by PARSER (from files_GN.cpp)

@<TRIPOS>ATOM
      1 C1         -6.8504   19.0550   17.4518 C.3         1 MOL       0.2034
      2 C2         -6.8372   20.5854   17.7103 C.3         1 MOL       0.1402
      3 O3         -8.1546   21.0884   17.9535 O.3         1 MOL      -0.3834
      4 C4         -6.1838   21.2052   16.4606 C.3         1 MOL       0.1189
      5 O5         -6.9250   22.2928   15.9103 O.3         1 MOL      -0.3846
      6 C6         -6.0917   20.0079   15.4873 C.3         1 MOL       0.1082
      7 C7         -5.8312   16.0099   22.7000 C.3         1 MOL      -0.0106
      8 N8         -5.9198   16.3224   19.6233 N.2         1 MOL      -0.2933
      9 C9         -6.1151   16.8973   18.4261 C.2         1 MOL       0.1151
     10 N10        -6.4988   18.1918   18.5568 N.pl3       1 MOL      -0.1882
     11 C11        -6.5688   18.4273   19.8826 C.ar        1 MOL       0.1683
     12 C12        -6.1978   17.2559   20.5430 C.ar        1 MOL       0.0876
     13 O13        -5.9485   18.8751   16.3493 O.3         1 MOL      -0.3296
     14 C14        -5.0626   19.9236   14.4607 C.2         1 MOL      -0.0658
     15 C15        -4.0370   20.7769   14.2722 C.2         1 MOL      -0.0744
     16 C16        -2.9448   20.5101   13.3387 C.3         1 MOL       0.0471
     17 N17        -2.2807   19.2346   13.3781 N.am        1 MOL      -0.2802
     18 C18        -2.2800   18.2895   14.3130 C.2         1 MOL       0.1986
     19 O19        -2.8982   18.3906   15.3654 O.2         1 MOL      -0.3908
     20 C20        -1.5654   17.1167   14.1262 C.ar        1 MOL       0.0720
     21 C21        -2.2617   15.8846   14.0783 C.ar        1 MOL      -0.0533
     22 C22        -1.5777   14.6505   13.9877 C.ar        1 MOL      -0.0339
     23 C23        -0.1638   14.6602   13.9857 C.ar        1 MOL      -0.0299
     24 C24        -2.3121   13.4388   13.9031 C.ar        1 MOL      -0.0299
     25 C25        -3.2116   13.2188   12.8328 C.ar        1 MOL      -0.0581
     26 C26        -3.9718   12.0389   12.7657 C.ar        1 MOL      -0.0288
     27 C27        -2.1912   12.4492   14.9068 C.ar        1 MOL      -0.0581
     28 C28        -2.9673   11.2774   14.8492 C.ar        1 MOL      -0.0288
     29 C29        -3.8573   11.0689   13.7789 C.ar        1 MOL       0.1316
     30 F30        -4.5734    9.9804   13.7254 F           1 MOL      -0.1840
     31 C31        -0.1491   17.1014   14.0629 C.ar        1 MOL       0.1393
     32 O32         0.5714   18.2547   14.0809 O.3         1 MOL      -0.3302
     33 C33         0.5477   15.8747   14.0234 C.ar        1 MOL       0.1232
     34 O34         1.9053   15.8431   13.9949 O.3         1 MOL      -0.3356
     35 C35        -6.1929   17.2263   21.9490 C.ar        1 MOL       0.0444
     36 N38        -6.5538   18.3647   22.6069 N.ar        1 MOL      -0.2825
     37 C39        -6.9157   19.5017   21.9558 C.ar        1 MOL       0.0619
     38 N40        -6.9262   19.5274   20.5983 N.ar        1 MOL      -0.2608
     39 H1         -7.8399   18.7468   17.1149 H           1 MOL       0.0998
     40 H2         -6.2019   20.8352   18.5678 H           1 MOL       0.0678
     41 H3         -8.5342   20.5058   18.6474 H           1 MOL       0.2101
     42 H4         -5.1936   21.5599   16.7519 H           1 MOL       0.0667
     43 H5         -6.2455   22.9766   15.7396 H           1 MOL       0.2102
     44 H6         -7.0567   19.9227   14.9643 H           1 MOL       0.0749
     45 H7         -5.8759   16.1903   23.7759 H           1 MOL       0.0446
     46 H8         -4.8180   15.7034   22.4393 H           1 MOL       0.0446
     47 H9         -6.5255   15.2061   22.4524 H           1 MOL       0.0446
     48 H10        -5.9880   16.4107   17.5401 H           1 MOL       0.1373
     49 H11        -5.0559   19.0780   13.9347 H           1 MOL       0.0477
     50 H12        -3.9870   21.6151   14.8168 H           1 MOL       0.0470
     51 H13        -2.1632   21.2627   13.5054 H           1 MOL       0.0643
     52 H14        -3.3318   20.6636   12.3261 H           1 MOL       0.0643
     53 H15        -1.7425   19.0480   12.6008 H           1 MOL       0.1864
     54 H16        -3.2897   15.8840   14.1111 H           1 MOL       0.0555
     55 H17         0.3558   13.7851   13.9330 H           1 MOL       0.0543
     56 H18        -3.3154   13.9146   12.0881 H           1 MOL       0.0601
     57 H19        -4.6119   11.8925   11.9837 H           1 MOL       0.0602
     58 H20        -1.5576   12.5878   15.6991 H           1 MOL       0.0601
     59 H21        -2.8840   10.5772   15.5907 H           1 MOL       0.0602
     60 H22         0.4457   18.6332   13.1866 H           1 MOL       0.2479
     61 H23         2.2006   16.2428   14.8437 H           1 MOL       0.2443
     62 H24        -7.1781   20.3299   22.4819 H           1 MOL       0.1019
@<TRIPOS>BOND
     1     1     2   1
     2    10     1   1
     3     1    13   1
     4     2     3   1
     5     2     4   1
     6     4     5   1
     7     6     4   1
     8    13     6   1
     9     6    14   1
    10    35     7   1
    11     8     9   2
    12    12     8   1
    13    10     9   1
    14    11    10   1
    15    12    11  ar
    16    11    38  ar
    17    12    35  ar
    18    14    15   2
    19    15    16   1
    20    16    17   1
    21    17    18  am
    22    18    19   2
    23    18    20   1
    24    20    21  ar
    25    20    31  ar
    26    21    22  ar
    27    22    23  ar
    28    22    24   1
    29    23    33  ar
    30    24    25  ar
    31    24    27  ar
    32    25    26  ar
    33    26    29  ar
    34    27    28  ar
    35    28    29  ar
    36    29    30   1
    37    31    32   1
    38    31    33  ar
    39    33    34   1
    40    35    36  ar
    41    36    37  ar
    42    37    38  ar
    43     1    39   1
    44     2    40   1
    45     3    41   1
    46     4    42   1
    47     5    43   1
    48     6    44   1
    49     7    45   1
    50     7    46   1
    51     7    47   1
    52     9    48   1
    53    14    49   1
    54    15    50   1
    55    16    51   1
    56    16    52   1
    57    17    53   1
    58    21    54   1
    59    23    55   1
    60    25    56   1
    61    26    57   1
    62    27    58   1
    63    28    59   1
    64    32    60   1
    65    34    61   1
    66    37    62   1
@<TRIPOS>SUBSTRUCTURE
     1  MOL      1

