@<TRIPOS>MOLECULE
3nw9_ligand_000
    62    66
SMALL
GAST_HUCK
****
This file was generated by PARSER (from files_GN.cpp)

@<TRIPOS>ATOM
      1 C1         -4.4769   21.3714   13.9633 C.3         1 MOL       0.2034
      2 C2         -4.7074   20.5101   15.2380 C.3         1 MOL       0.1402
      3 O3         -5.1694   21.2971   16.3422 O.3         1 MOL      -0.3834
      4 C4         -3.3392   19.8521   15.5020 C.3         1 MOL       0.1189
      5 O5         -3.0080   19.7691   16.8880 O.3         1 MOL      -0.3846
      6 C6         -2.3590   20.7358   14.7017 C.3         1 MOL       0.1082
      7 C7         -8.3366   21.0417    9.1967 C.3         1 MOL      -0.0106
      8 N8         -6.3680   19.8512   11.2797 N.2         1 MOL      -0.2933
      9 C9         -5.5104   19.8120   12.3158 C.2         1 MOL       0.1151
     10 N10        -5.3369   21.0395   12.8599 N.pl3       1 MOL      -0.1882
     11 C11        -6.0937   21.8806   12.1305 C.ar        1 MOL       0.1683
     12 C12        -6.7425   21.1330   11.1480 C.ar        1 MOL       0.0876
     13 O13        -3.1201   21.1628   13.5619 O.3         1 MOL      -0.3296
     14 C14        -1.1352   20.0939   14.2359 C.2         1 MOL      -0.0658
     15 C15        -0.3012   19.3731   15.0173 C.2         1 MOL      -0.0744
     16 C16         0.9150   18.7367   14.5260 C.3         1 MOL       0.0471
     17 N17         0.8821   17.3099   14.6173 N.am        1 MOL      -0.2802
     18 C18        -0.0107   16.4999   14.0507 C.2         1 MOL       0.1986
     19 O19        -0.9742   16.9741   13.4549 O.2         1 MOL      -0.3908
     20 C20         0.0856   15.1061   14.1695 C.ar        1 MOL       0.0720
     21 C21        -1.1036   14.3309   14.2144 C.ar        1 MOL      -0.0533
     22 C22        -1.0654   12.9319   14.3998 C.ar        1 MOL      -0.0339
     23 C23         0.1848   12.2910   14.5141 C.ar        1 MOL      -0.0299
     24 C24        -2.2629   12.1854   14.4820 C.ar        1 MOL      -0.0299
     25 C25        -2.6610   11.6121   15.7111 C.ar        1 MOL      -0.0581
     26 C26        -3.8524   10.8693   15.7993 C.ar        1 MOL      -0.0288
     27 C27        -3.0769   11.9956   13.3407 C.ar        1 MOL      -0.0581
     28 C28        -4.2613   11.2406   13.4283 C.ar        1 MOL      -0.0288
     29 C29        -4.6526   10.6812   14.6572 C.ar        1 MOL       0.1316
     30 F30        -5.7579    9.9946   14.7412 F           1 MOL      -0.1840
     31 C31         1.3311   14.4281   14.2727 C.ar        1 MOL       0.1393
     32 O32         2.4959   15.1091   14.1228 O.3         1 MOL      -0.3302
     33 C33         1.3755   13.0271   14.4218 C.ar        1 MOL       0.1232
     34 O34         2.5437   12.3409   14.4510 O.3         1 MOL      -0.3356
     35 C35        -7.6002   21.7835   10.2365 C.ar        1 MOL       0.0444
     36 N38        -7.7346   23.1363   10.3536 N.ar        1 MOL      -0.2825
     37 C39        -7.0909   23.8502   11.3195 C.ar        1 MOL       0.0619
     38 N40        -6.2779   23.2239   12.2104 N.ar        1 MOL      -0.2608
     39 H1         -4.5832   22.4320   14.2083 H           1 MOL       0.0998
     40 H2         -5.4624   19.7327   15.0752 H           1 MOL       0.0678
     41 H3         -4.6788   22.1423   16.2949 H           1 MOL       0.2101
     42 H4         -3.3444   18.8355   15.0908 H           1 MOL       0.0667
     43 H5         -2.9972   20.6919   17.2241 H           1 MOL       0.2102
     44 H6         -2.0871   21.6176   15.2908 H           1 MOL       0.0749
     45 H7         -8.9508   21.7120    8.5943 H           1 MOL       0.0446
     46 H8         -8.9881   20.3051    9.6694 H           1 MOL       0.0446
     47 H9         -7.6365   20.5270    8.5387 H           1 MOL       0.0446
     48 H10        -5.0584   18.9520   12.6381 H           1 MOL       0.1373
     49 H11        -0.9000   20.1899   13.2699 H           1 MOL       0.0477
     50 H12        -0.5384   19.2262   15.9734 H           1 MOL       0.0470
     51 H13         1.7447   19.0877   15.1383 H           1 MOL       0.0643
     52 H14         1.1272   19.0148   13.4926 H           1 MOL       0.0643
     53 H15         1.6040   16.8912   15.1130 H           1 MOL       0.1864
     54 H16        -2.0165   14.7939   14.1482 H           1 MOL       0.0555
     55 H17         0.2251   11.2735   14.6282 H           1 MOL       0.0543
     56 H18        -2.0907   11.7432   16.5538 H           1 MOL       0.0601
     57 H19        -4.1360   10.4733   16.6988 H           1 MOL       0.0602
     58 H20        -2.8022   12.3934   12.4365 H           1 MOL       0.0601
     59 H21        -4.8401   11.1067   12.5938 H           1 MOL       0.0602
     60 H22         3.0576   14.8656   14.8900 H           1 MOL       0.2479
     61 H23         3.2510   12.9705   14.6868 H           1 MOL       0.2443
     62 H24        -7.2205   24.8599   11.3788 H           1 MOL       0.1019
@<TRIPOS>BOND
     1     1     2   1
     2    10     1   1
     3     1    13   1
     4     2     3   1
     5     2     4   1
     6     4     5   1
     7     6     4   1
     8    13     6   1
     9     6    14   1
    10    35     7   1
    11     8     9   2
    12    12     8   1
    13    10     9   1
    14    11    10   1
    15    12    11  ar
    16    11    38  ar
    17    12    35  ar
    18    14    15   2
    19    15    16   1
    20    16    17   1
    21    17    18  am
    22    18    19   2
    23    18    20   1
    24    20    21  ar
    25    20    31  ar
    26    21    22  ar
    27    22    23  ar
    28    22    24   1
    29    23    33  ar
    30    24    25  ar
    31    24    27  ar
    32    25    26  ar
    33    26    29  ar
    34    27    28  ar
    35    28    29  ar
    36    29    30   1
    37    31    32   1
    38    31    33  ar
    39    33    34   1
    40    35    36  ar
    41    36    37  ar
    42    37    38  ar
    43     1    39   1
    44     2    40   1
    45     3    41   1
    46     4    42   1
    47     5    43   1
    48     6    44   1
    49     7    45   1
    50     7    46   1
    51     7    47   1
    52     9    48   1
    53    14    49   1
    54    15    50   1
    55    16    51   1
    56    16    52   1
    57    17    53   1
    58    21    54   1
    59    23    55   1
    60    25    56   1
    61    26    57   1
    62    27    58   1
    63    28    59   1
    64    32    60   1
    65    34    61   1
    66    37    62   1
@<TRIPOS>SUBSTRUCTURE
     1  MOL      1

