@<TRIPOS>MOLECULE
3nw9_ligand_067
    62    66
SMALL
GAST_HUCK
****
This file was generated by PARSER (from files_GN.cpp)

@<TRIPOS>ATOM
      1 C1         -4.1436   20.8382   13.1741 C.3         1 MOL       0.2034
      2 C2         -4.2332   20.5040   14.6764 C.3         1 MOL       0.1402
      3 O3         -4.6426   21.6114   15.4729 O.3         1 MOL      -0.3834
      4 C4         -2.8194   19.9896   14.9898 C.3         1 MOL       0.1189
      5 O5         -1.9310   21.0542   15.3421 O.3         1 MOL      -0.3846
      6 C6         -2.3921   19.3487   13.6397 C.3         1 MOL       0.1082
      7 C7         -8.9210   21.6272    9.4273 C.3         1 MOL      -0.0106
      8 N8         -7.3503   20.1708   11.6451 N.2         1 MOL      -0.2933
      9 C9         -6.3594   19.9006   12.5101 C.2         1 MOL       0.1151
     10 N10        -5.3829   20.8348   12.4459 N.pl3       1 MOL      -0.1882
     11 C11        -5.7597   21.7076   11.4952 C.ar        1 MOL       0.1683
     12 C12        -6.9942   21.2927   11.0067 C.ar        1 MOL       0.0876
     13 O13        -3.2783   19.8465   12.6208 O.3         1 MOL      -0.3296
     14 C14        -2.3641   17.8870   13.6815 C.2         1 MOL      -0.0658
     15 C15        -3.3775   17.0870   13.2922 C.2         1 MOL      -0.0744
     16 C16        -3.2462   15.6462   13.1769 C.3         1 MOL       0.0471
     17 N17        -3.0192   14.9970   14.4305 N.am        1 MOL      -0.2802
     18 C18        -3.9286   14.6524   15.3329 C.2         1 MOL       0.1986
     19 O19        -5.1128   14.9152   15.1739 O.2         1 MOL      -0.3908
     20 C20        -3.4760   14.1735   16.5579 C.ar        1 MOL       0.0720
     21 C21        -3.8123   14.8779   17.7381 C.ar        1 MOL      -0.0533
     22 C22        -3.2582   14.5126   18.9834 C.ar        1 MOL      -0.0339
     23 C23        -2.3773   13.4127   19.0533 C.ar        1 MOL      -0.0299
     24 C24        -3.5211   15.2910   20.1311 C.ar        1 MOL      -0.0299
     25 C25        -4.7887   15.2655   20.7512 C.ar        1 MOL      -0.0581
     26 C26        -5.0448   16.0768   21.8711 C.ar        1 MOL      -0.0288
     27 C27        -2.5116   16.1337   20.6485 C.ar        1 MOL      -0.0581
     28 C28        -2.7757   16.9576   21.7553 C.ar        1 MOL      -0.0288
     29 C29        -4.0433   16.9348   22.3689 C.ar        1 MOL       0.1316
     30 F30        -4.2877   17.7017   23.3936 F           1 MOL      -0.1840
     31 C31        -2.5934   13.0654   16.6467 C.ar        1 MOL       0.1393
     32 O32        -2.3005   12.3177   15.5491 O.3         1 MOL      -0.3302
     33 C33        -2.0557   12.6855   17.8975 C.ar        1 MOL       0.1232
     34 O34        -1.2358   11.6124   18.0059 O.3         1 MOL      -0.3356
     35 C35        -7.6172   22.0330    9.9841 C.ar        1 MOL       0.0444
     36 N38        -6.9606   23.1301    9.5113 N.ar        1 MOL      -0.2825
     37 C39        -5.7442   23.5147    9.9927 C.ar        1 MOL       0.0619
     38 N40        -5.1428   22.8039   10.9830 N.ar        1 MOL      -0.2608
     39 H1         -3.6457   21.8106   13.0665 H           1 MOL       0.0998
     40 H2         -4.9431   19.6952   14.8525 H           1 MOL       0.0678
     41 H3         -3.9923   22.3193   15.2949 H           1 MOL       0.2101
     42 H4         -2.8411   19.2778   15.8151 H           1 MOL       0.0667
     43 H5         -2.1578   21.2988   16.2654 H           1 MOL       0.2102
     44 H6         -1.3895   19.6871   13.3642 H           1 MOL       0.0749
     45 H7         -9.2373   22.3009    8.6309 H           1 MOL       0.0446
     46 H8         -9.6773   21.6365   10.2150 H           1 MOL       0.0446
     47 H9         -8.8490   20.6158    9.0208 H           1 MOL       0.0446
     48 H10        -6.3571   19.0843   13.1198 H           1 MOL       0.1373
     49 H11        -1.5305   17.4672   14.0270 H           1 MOL       0.0477
     50 H12        -4.2355   17.4935   13.0047 H           1 MOL       0.0470
     51 H13        -2.3840   15.4421   12.5418 H           1 MOL       0.0643
     52 H14        -4.1201   15.2173   12.6791 H           1 MOL       0.0643
     53 H15        -2.0956   14.8003   14.6469 H           1 MOL       0.1864
     54 H16        -4.4181   15.7044   17.6864 H           1 MOL       0.0555
     55 H17        -1.9766   13.1300   19.9513 H           1 MOL       0.0543
     56 H18        -5.5277   14.6497   20.3980 H           1 MOL       0.0601
     57 H19        -5.9631   16.0461   22.3237 H           1 MOL       0.0602
     58 H20        -1.5845   16.1658   20.2145 H           1 MOL       0.0601
     59 H21        -2.0441   17.5785   22.1125 H           1 MOL       0.0602
     60 H22        -1.3261   12.3474   15.4565 H           1 MOL       0.2479
     61 H23        -1.8454   10.8460   18.0474 H           1 MOL       0.2443
     62 H24        -5.2781   24.3378    9.6106 H           1 MOL       0.1019
@<TRIPOS>BOND
     1     1     2   1
     2    10     1   1
     3     1    13   1
     4     2     3   1
     5     2     4   1
     6     4     5   1
     7     6     4   1
     8    13     6   1
     9     6    14   1
    10    35     7   1
    11     8     9   2
    12    12     8   1
    13    10     9   1
    14    11    10   1
    15    12    11  ar
    16    11    38  ar
    17    12    35  ar
    18    14    15   2
    19    15    16   1
    20    16    17   1
    21    17    18  am
    22    18    19   2
    23    18    20   1
    24    20    21  ar
    25    20    31  ar
    26    21    22  ar
    27    22    23  ar
    28    22    24   1
    29    23    33  ar
    30    24    25  ar
    31    24    27  ar
    32    25    26  ar
    33    26    29  ar
    34    27    28  ar
    35    28    29  ar
    36    29    30   1
    37    31    32   1
    38    31    33  ar
    39    33    34   1
    40    35    36  ar
    41    36    37  ar
    42    37    38  ar
    43     1    39   1
    44     2    40   1
    45     3    41   1
    46     4    42   1
    47     5    43   1
    48     6    44   1
    49     7    45   1
    50     7    46   1
    51     7    47   1
    52     9    48   1
    53    14    49   1
    54    15    50   1
    55    16    51   1
    56    16    52   1
    57    17    53   1
    58    21    54   1
    59    23    55   1
    60    25    56   1
    61    26    57   1
    62    27    58   1
    63    28    59   1
    64    32    60   1
    65    34    61   1
    66    37    62   1
@<TRIPOS>SUBSTRUCTURE
     1  MOL      1

