@<TRIPOS>MOLECULE
3nw9_ligand_075
    62    66
SMALL
GAST_HUCK
****
This file was generated by PARSER (from files_GN.cpp)

@<TRIPOS>ATOM
      1 C1         -3.4456   13.1240   16.4097 C.3         1 MOL       0.2034
      2 C2         -3.1201   13.6014   14.9758 C.3         1 MOL       0.1402
      3 O3         -4.2769   13.8419   14.1753 O.3         1 MOL      -0.3834
      4 C4         -2.2785   12.4397   14.4346 C.3         1 MOL       0.1189
      5 O5         -3.0967   11.3556   13.9863 O.3         1 MOL      -0.3846
      6 C6         -1.4747   12.0207   15.6925 C.3         1 MOL       0.1082
      7 C7         -5.0020   17.8389   20.0427 C.3         1 MOL      -0.0106
      8 N8         -4.1619   14.9324   19.4449 N.2         1 MOL      -0.2933
      9 C9         -3.8158   13.8465   18.7347 C.2         1 MOL       0.1151
     10 N10        -3.7450   14.1207   17.4087 N.pl3       1 MOL      -0.1882
     11 C11        -4.0743   15.4211   17.2786 C.ar        1 MOL       0.1683
     12 C12        -4.3289   15.9192   18.5572 C.ar        1 MOL       0.0876
     13 O13        -2.3151   12.3285   16.8208 O.3         1 MOL      -0.3296
     14 C14        -0.1993   12.7168   15.8379 C.2         1 MOL      -0.0658
     15 C15         0.8194   12.5578   14.9764 C.2         1 MOL      -0.0744
     16 C16         2.0289   13.3692   15.0240 C.3         1 MOL       0.0471
     17 N17         1.8253   14.7850   14.9227 N.am        1 MOL      -0.2802
     18 C18         1.0188   15.4249   14.0849 C.2         1 MOL       0.1986
     19 O19         0.2894   14.8044   13.3206 O.2         1 MOL      -0.3908
     20 C20         0.9009   16.8050   14.1600 C.ar        1 MOL       0.0720
     21 C21        -0.3812   17.4062   14.2121 C.ar        1 MOL      -0.0533
     22 C22        -0.5454   18.8090   14.3149 C.ar        1 MOL      -0.0339
     23 C23         0.6148   19.6137   14.3572 C.ar        1 MOL      -0.0299
     24 C24        -1.8466   19.4010   14.3324 C.ar        1 MOL      -0.0299
     25 C25        -2.8388   18.9695   13.4199 C.ar        1 MOL      -0.0581
     26 C26        -4.1119   19.5649   13.3941 C.ar        1 MOL      -0.0288
     27 C27        -2.1772   20.4437   15.2333 C.ar        1 MOL      -0.0581
     28 C28        -3.4534   21.0317   15.2211 C.ar        1 MOL      -0.0288
     29 C29        -4.4209   20.6005   14.2942 C.ar        1 MOL       0.1316
     30 F30        -5.6046   21.1535   14.2716 F           1 MOL      -0.1840
     31 C31         2.0451   17.6444   14.1830 C.ar        1 MOL       0.1393
     32 O32         3.2932   17.1219   14.0206 O.3         1 MOL      -0.3302
     33 C33         1.8950   19.0461   14.2859 C.ar        1 MOL       0.1232
     34 O34         2.9790   19.8611   14.2667 O.3         1 MOL      -0.3356
     35 C35        -4.7176   17.2638   18.7175 C.ar        1 MOL       0.0444
     36 N38        -4.8402   18.0233   17.5913 N.ar        1 MOL      -0.2825
     37 C39        -4.5957   17.5255   16.3463 C.ar        1 MOL       0.0619
     38 N40        -4.2162   16.2283   16.1929 N.ar        1 MOL      -0.2608
     39 H1         -4.3045   12.4476   16.3619 H           1 MOL       0.0998
     40 H2         -2.5036   14.5056   15.0031 H           1 MOL       0.0678
     41 H3         -4.7476   14.5804   14.6102 H           1 MOL       0.2101
     42 H4         -1.6445   12.7551   13.6024 H           1 MOL       0.0667
     43 H5         -3.5229   11.6779   13.1622 H           1 MOL       0.2102
     44 H6         -1.2839   10.9436   15.6880 H           1 MOL       0.0749
     45 H7         -5.3232   18.8774   19.9558 H           1 MOL       0.0446
     46 H8         -4.1041   17.8058   20.6635 H           1 MOL       0.0446
     47 H9         -5.7958   17.2725   20.5348 H           1 MOL       0.0446
     48 H10        -3.6402   12.9347   19.1567 H           1 MOL       0.1373
     49 H11        -0.0904   13.3540   16.5946 H           1 MOL       0.0477
     50 H12         0.7194   11.9136   14.2261 H           1 MOL       0.0470
     51 H13         2.6995   13.0680   14.2161 H           1 MOL       0.0643
     52 H14         2.5454   13.1661   15.9640 H           1 MOL       0.0643
     53 H15         2.3493   15.3443   15.5190 H           1 MOL       0.1864
     54 H16        -1.2130   16.8077   14.1978 H           1 MOL       0.0555
     55 H17         0.5326   20.6354   14.3961 H           1 MOL       0.0543
     56 H18        -2.6343   18.2268   12.7448 H           1 MOL       0.0601
     57 H19        -4.8095   19.2461   12.7140 H           1 MOL       0.0602
     58 H20        -1.4938   20.7729   15.9196 H           1 MOL       0.0601
     59 H21        -3.6810   21.7718   15.8884 H           1 MOL       0.0602
     60 H22         3.6770   17.6441   13.2897 H           1 MOL       0.2479
     61 H23         3.3939   19.6741   13.3967 H           1 MOL       0.2443
     62 H24        -4.7166   18.1254   15.5295 H           1 MOL       0.1019
@<TRIPOS>BOND
     1     1     2   1
     2    10     1   1
     3     1    13   1
     4     2     3   1
     5     2     4   1
     6     4     5   1
     7     6     4   1
     8    13     6   1
     9     6    14   1
    10    35     7   1
    11     8     9   2
    12    12     8   1
    13    10     9   1
    14    11    10   1
    15    12    11  ar
    16    11    38  ar
    17    12    35  ar
    18    14    15   2
    19    15    16   1
    20    16    17   1
    21    17    18  am
    22    18    19   2
    23    18    20   1
    24    20    21  ar
    25    20    31  ar
    26    21    22  ar
    27    22    23  ar
    28    22    24   1
    29    23    33  ar
    30    24    25  ar
    31    24    27  ar
    32    25    26  ar
    33    26    29  ar
    34    27    28  ar
    35    28    29  ar
    36    29    30   1
    37    31    32   1
    38    31    33  ar
    39    33    34   1
    40    35    36  ar
    41    36    37  ar
    42    37    38  ar
    43     1    39   1
    44     2    40   1
    45     3    41   1
    46     4    42   1
    47     5    43   1
    48     6    44   1
    49     7    45   1
    50     7    46   1
    51     7    47   1
    52     9    48   1
    53    14    49   1
    54    15    50   1
    55    16    51   1
    56    16    52   1
    57    17    53   1
    58    21    54   1
    59    23    55   1
    60    25    56   1
    61    26    57   1
    62    27    58   1
    63    28    59   1
    64    32    60   1
    65    34    61   1
    66    37    62   1
@<TRIPOS>SUBSTRUCTURE
     1  MOL      1

