@<TRIPOS>MOLECULE
3nw9_ligand_078
    62    66
SMALL
GAST_HUCK
****
This file was generated by PARSER (from files_GN.cpp)

@<TRIPOS>ATOM
      1 C1          0.3168    8.7466   17.4929 C.3         1 MOL       0.2034
      2 C2          0.5029    8.3625   16.0062 C.3         1 MOL       0.1402
      3 O3         -0.0837    7.1049   15.6706 O.3         1 MOL      -0.3834
      4 C4          2.0272    8.3983   15.8158 C.3         1 MOL       0.1189
      5 O5          2.6228    7.1216   16.0653 O.3         1 MOL      -0.3846
      6 C6          2.4868    9.4420   16.8622 C.3         1 MOL       0.1082
      7 C7         -4.1959   12.7098   18.7997 C.3         1 MOL      -0.0106
      8 N8         -3.0665    9.9576   17.9039 N.2         1 MOL      -0.2933
      9 C9         -2.1508    9.0160   17.6068 C.2         1 MOL       0.1151
     10 N10        -0.8893    9.4924   17.7379 N.pl3       1 MOL      -0.1882
     11 C11        -1.0156   10.7726   18.1406 C.ar        1 MOL       0.1683
     12 C12        -2.3769   11.0573   18.2383 C.ar        1 MOL       0.0876
     13 O13         1.5023    9.4530   17.9067 O.3         1 MOL      -0.3296
     14 C14         2.7010   10.7860   16.3320 C.2         1 MOL      -0.0658
     15 C15         1.7167   11.5784   15.8813 C.2         1 MOL      -0.0744
     16 C16         1.9570   12.9159   15.3735 C.3         1 MOL       0.0471
     17 N17         0.7289   13.5825   15.0589 N.am        1 MOL      -0.2802
     18 C18         0.5820   14.6606   14.2930 C.2         1 MOL       0.1986
     19 O19         1.5795   15.1178   13.7425 O.2         1 MOL      -0.3908
     20 C20        -0.6779   15.2328   14.0663 C.ar        1 MOL       0.0720
     21 C21        -1.8435   14.4163   14.0336 C.ar        1 MOL      -0.0533
     22 C22        -3.1320   14.9608   13.8396 C.ar        1 MOL      -0.0339
     23 C23        -3.2647   16.3492   13.6575 C.ar        1 MOL      -0.0299
     24 C24        -4.2795   14.1267   13.7953 C.ar        1 MOL      -0.0299
     25 C25        -4.4410   13.1927   12.7471 C.ar        1 MOL      -0.0581
     26 C26        -5.6103   12.4170   12.6541 C.ar        1 MOL      -0.0288
     27 C27        -5.2998   14.2501   14.7656 C.ar        1 MOL      -0.0581
     28 C28        -6.4696   13.4672   14.6786 C.ar        1 MOL      -0.0288
     29 C29        -6.6296   12.5540   13.6171 C.ar        1 MOL       0.1316
     30 F30        -7.7183   11.8438   13.5262 F           1 MOL      -0.1840
     31 C31        -0.8474   16.6326   13.8520 C.ar        1 MOL       0.1393
     32 O32         0.2122   17.4819   13.9036 O.3         1 MOL      -0.3302
     33 C33        -2.1354   17.1802   13.6482 C.ar        1 MOL       0.1232
     34 O34        -2.3228   18.5119   13.4739 O.3         1 MOL      -0.3356
     35 C35        -2.7764   12.3485   18.6427 C.ar        1 MOL       0.0444
     36 N38        -1.8015   13.2649   18.9049 N.ar        1 MOL      -0.2825
     37 C39        -0.4775   12.9691   18.7964 C.ar        1 MOL       0.0619
     38 N40        -0.0895   11.7235   18.4219 N.ar        1 MOL      -0.2608
     39 H1          0.2778    7.8365   18.0961 H           1 MOL       0.0998
     40 H2          0.0481    9.1196   15.3585 H           1 MOL       0.0678
     41 H3          0.3874    6.4385   16.2100 H           1 MOL       0.2101
     42 H4          2.2890    8.6922   14.7929 H           1 MOL       0.0667
     43 H5          2.4758    6.9378   17.0182 H           1 MOL       0.2102
     44 H6          3.4284    9.1117   17.3095 H           1 MOL       0.0749
     45 H7         -4.3008   13.7471   19.1229 H           1 MOL       0.0446
     46 H8         -4.6591   12.0647   19.5515 H           1 MOL       0.0446
     47 H9         -4.7203   12.5866   17.8490 H           1 MOL       0.0446
     48 H10        -2.3917    8.0663   17.3144 H           1 MOL       0.1373
     49 H11         3.6313   11.1375   16.3227 H           1 MOL       0.0477
     50 H12         0.7786   11.2457   15.9106 H           1 MOL       0.0470
     51 H13         2.5794   12.8399   14.4749 H           1 MOL       0.0643
     52 H14         2.4816   13.5027   16.1248 H           1 MOL       0.0643
     53 H15        -0.0772   13.2267   15.4633 H           1 MOL       0.1864
     54 H16        -1.7617   13.4030   14.1480 H           1 MOL       0.0555
     55 H17        -4.1873   16.7657   13.5077 H           1 MOL       0.0543
     56 H18        -3.7231   13.0902   12.0260 H           1 MOL       0.0601
     57 H19        -5.7254   11.7588   11.8789 H           1 MOL       0.0602
     58 H20        -5.2056   14.9104   15.5413 H           1 MOL       0.0601
     59 H21        -7.2025   13.5713   15.3828 H           1 MOL       0.0602
     60 H22         0.2446   17.9308   13.0347 H           1 MOL       0.2479
     61 H23        -1.8228   18.7534   12.6668 H           1 MOL       0.2443
     62 H24         0.2238   13.6826   18.9951 H           1 MOL       0.1019
@<TRIPOS>BOND
     1     1     2   1
     2    10     1   1
     3     1    13   1
     4     2     3   1
     5     2     4   1
     6     4     5   1
     7     6     4   1
     8    13     6   1
     9     6    14   1
    10    35     7   1
    11     8     9   2
    12    12     8   1
    13    10     9   1
    14    11    10   1
    15    12    11  ar
    16    11    38  ar
    17    12    35  ar
    18    14    15   2
    19    15    16   1
    20    16    17   1
    21    17    18  am
    22    18    19   2
    23    18    20   1
    24    20    21  ar
    25    20    31  ar
    26    21    22  ar
    27    22    23  ar
    28    22    24   1
    29    23    33  ar
    30    24    25  ar
    31    24    27  ar
    32    25    26  ar
    33    26    29  ar
    34    27    28  ar
    35    28    29  ar
    36    29    30   1
    37    31    32   1
    38    31    33  ar
    39    33    34   1
    40    35    36  ar
    41    36    37  ar
    42    37    38  ar
    43     1    39   1
    44     2    40   1
    45     3    41   1
    46     4    42   1
    47     5    43   1
    48     6    44   1
    49     7    45   1
    50     7    46   1
    51     7    47   1
    52     9    48   1
    53    14    49   1
    54    15    50   1
    55    16    51   1
    56    16    52   1
    57    17    53   1
    58    21    54   1
    59    23    55   1
    60    25    56   1
    61    26    57   1
    62    27    58   1
    63    28    59   1
    64    32    60   1
    65    34    61   1
    66    37    62   1
@<TRIPOS>SUBSTRUCTURE
     1  MOL      1

