@<TRIPOS>MOLECULE
3nw9_ligand_057
    62    66
SMALL
GAST_HUCK
****
This file was generated by PARSER (from files_GN.cpp)

@<TRIPOS>ATOM
      1 C1         -6.9820   16.0375   18.3920 C.3         1 MOL       0.2034
      2 C2         -5.9078   14.9961   18.7793 C.3         1 MOL       0.1402
      3 O3         -6.0852   14.4274   20.0727 O.3         1 MOL      -0.3834
      4 C4         -4.6086   15.7990   18.6750 C.3         1 MOL       0.1189
      5 O5         -4.3162   16.4535   19.9180 O.3         1 MOL      -0.3846
      6 C6         -4.9288   16.8363   17.5660 C.3         1 MOL       0.1082
      7 C7        -12.5442   13.6764   17.3628 C.3         1 MOL      -0.0106
      8 N8         -9.6802   14.4728   16.5350 N.2         1 MOL      -0.2933
      9 C9         -8.4351   14.9637   16.6493 C.2         1 MOL       0.1151
     10 N10        -8.1957   15.4447   17.8963 N.pl3       1 MOL      -0.1882
     11 C11        -9.3350   15.2529   18.5872 C.ar        1 MOL       0.1683
     12 C12       -10.2532   14.6421   17.7376 C.ar        1 MOL       0.0876
     13 O13        -6.3594   16.9041   17.4264 O.3         1 MOL      -0.3296
     14 C14        -4.3125   16.5337   16.2806 C.2         1 MOL      -0.0658
     15 C15        -4.7403   15.5581   15.4582 C.2         1 MOL      -0.0744
     16 C16        -4.0845   15.2209   14.2095 C.3         1 MOL       0.0471
     17 N17        -2.7241   14.8470   14.4618 N.am        1 MOL      -0.2802
     18 C18        -2.0784   13.7819   13.9851 C.2         1 MOL       0.1986
     19 O19        -2.6578   12.9728   13.2662 O.2         1 MOL      -0.3908
     20 C20        -0.7575   13.5448   14.3443 C.ar        1 MOL       0.0720
     21 C21        -0.4036   12.3099   14.9541 C.ar        1 MOL      -0.0533
     22 C22         0.9336   12.0178   15.3090 C.ar        1 MOL      -0.0339
     23 C23         1.9312   12.9836   15.0598 C.ar        1 MOL      -0.0299
     24 C24         1.2701   10.7743   15.8972 C.ar        1 MOL      -0.0299
     25 C25         0.8836   10.4754   17.2251 C.ar        1 MOL      -0.0581
     26 C26         1.2594    9.2579   17.8257 C.ar        1 MOL      -0.0288
     27 C27         2.0244    9.8187   15.1747 C.ar        1 MOL      -0.0581
     28 C28         2.3866    8.5943   15.7688 C.ar        1 MOL      -0.0288
     29 C29         2.0124    8.3145   17.0970 C.ar        1 MOL       0.1316
     30 F30         2.3629    7.1856   17.6486 F           1 MOL      -0.1840
     31 C31         0.2727   14.4936   14.1078 C.ar        1 MOL       0.1393
     32 O32         0.0337   15.6443   13.4321 O.3         1 MOL      -0.3302
     33 C33         1.6047   14.2146   14.4724 C.ar        1 MOL       0.1232
     34 O34         2.5782   15.1220   14.2280 O.3         1 MOL      -0.3356
     35 C35       -11.5341   14.3174   18.2255 C.ar        1 MOL       0.0444
     36 N38       -11.8168   14.6175   19.5292 N.ar        1 MOL      -0.2825
     37 C39       -10.9054   15.2213   20.3414 C.ar        1 MOL       0.0619
     38 N40        -9.6675   15.5413   19.8761 N.ar        1 MOL      -0.2608
     39 H1         -7.2320   16.6551   19.2653 H           1 MOL       0.0998
     40 H2         -5.8919   14.1855   18.0486 H           1 MOL       0.0678
     41 H3         -6.9308   13.9311   20.0296 H           1 MOL       0.2101
     42 H4         -3.7657   15.1471   18.4243 H           1 MOL       0.0667
     43 H5         -3.4202   16.8429   19.8026 H           1 MOL       0.2102
     44 H6         -4.5814   17.8235   17.8876 H           1 MOL       0.0749
     45 H7        -13.4763   13.5018   17.9079 H           1 MOL       0.0446
     46 H8        -12.1684   12.7158   16.9984 H           1 MOL       0.0446
     47 H9        -12.7582   14.3230   16.5068 H           1 MOL       0.0446
     48 H10        -7.7663   14.9512   15.8786 H           1 MOL       0.1373
     49 H11        -3.5337   17.0875   15.9983 H           1 MOL       0.0477
     50 H12        -5.5447   15.0312   15.7086 H           1 MOL       0.0470
     51 H13        -4.0909   16.0810   13.5327 H           1 MOL       0.0643
     52 H14        -4.6455   14.4221   13.7113 H           1 MOL       0.0643
     53 H15        -2.2328   15.3959   15.0920 H           1 MOL       0.1864
     54 H16        -1.1307   11.6097   15.1396 H           1 MOL       0.0555
     55 H17         2.9058   12.7861   15.3036 H           1 MOL       0.0543
     56 H18         0.3466   11.1491   17.7773 H           1 MOL       0.0601
     57 H19         0.9865    9.0580   18.7897 H           1 MOL       0.0602
     58 H20         2.3116   10.0064   14.2106 H           1 MOL       0.0601
     59 H21         2.9266    7.9132   15.2309 H           1 MOL       0.0602
     60 H22        -0.0539   16.3366   14.1248 H           1 MOL       0.2479
     61 H23         2.6435   15.6623   15.0470 H           1 MOL       0.2443
     62 H24       -11.1484   15.4301   21.3130 H           1 MOL       0.1019
@<TRIPOS>BOND
     1     1     2   1
     2    10     1   1
     3     1    13   1
     4     2     3   1
     5     2     4   1
     6     4     5   1
     7     6     4   1
     8    13     6   1
     9     6    14   1
    10    35     7   1
    11     8     9   2
    12    12     8   1
    13    10     9   1
    14    11    10   1
    15    12    11  ar
    16    11    38  ar
    17    12    35  ar
    18    14    15   2
    19    15    16   1
    20    16    17   1
    21    17    18  am
    22    18    19   2
    23    18    20   1
    24    20    21  ar
    25    20    31  ar
    26    21    22  ar
    27    22    23  ar
    28    22    24   1
    29    23    33  ar
    30    24    25  ar
    31    24    27  ar
    32    25    26  ar
    33    26    29  ar
    34    27    28  ar
    35    28    29  ar
    36    29    30   1
    37    31    32   1
    38    31    33  ar
    39    33    34   1
    40    35    36  ar
    41    36    37  ar
    42    37    38  ar
    43     1    39   1
    44     2    40   1
    45     3    41   1
    46     4    42   1
    47     5    43   1
    48     6    44   1
    49     7    45   1
    50     7    46   1
    51     7    47   1
    52     9    48   1
    53    14    49   1
    54    15    50   1
    55    16    51   1
    56    16    52   1
    57    17    53   1
    58    21    54   1
    59    23    55   1
    60    25    56   1
    61    26    57   1
    62    27    58   1
    63    28    59   1
    64    32    60   1
    65    34    61   1
    66    37    62   1
@<TRIPOS>SUBSTRUCTURE
     1  MOL      1

