@<TRIPOS>MOLECULE
3nw9_ligand_052
    62    66
SMALL
GAST_HUCK
****
This file was generated by PARSER (from files_GN.cpp)

@<TRIPOS>ATOM
      1 C1         -7.1275    9.4628   10.4346 C.3         1 MOL       0.2034
      2 C2         -5.8784    9.9974    9.6891 C.3         1 MOL       0.1402
      3 O3         -5.8910    9.6677    8.3007 O.3         1 MOL      -0.3834
      4 C4         -4.7199    9.3558   10.4697 C.3         1 MOL       0.1189
      5 O5         -4.3476    8.0886    9.9240 O.3         1 MOL      -0.3846
      6 C6         -5.3084    9.1849   11.8985 C.3         1 MOL       0.1082
      7 C7        -12.7965   11.7468   10.9020 C.3         1 MOL      -0.0106
      8 N8         -9.7208   12.0088   10.6695 N.2         1 MOL      -0.2933
      9 C9         -8.4313   11.6308   10.5532 C.2         1 MOL       0.1151
     10 N10        -8.3130   10.2809   10.4632 N.pl3       1 MOL      -0.1882
     11 C11        -9.5701    9.8003   10.5367 C.ar        1 MOL       0.1683
     12 C12       -10.4440   10.8829   10.6602 C.ar        1 MOL       0.0876
     13 O13        -6.7397    9.2210   11.7971 O.3         1 MOL      -0.3296
     14 C14        -4.8913   10.1851   12.8763 C.2         1 MOL      -0.0658
     15 C15        -4.7706   11.5007   12.6090 C.2         1 MOL      -0.0744
     16 C16        -4.4303   12.4975   13.6076 C.3         1 MOL       0.0471
     17 N17        -3.0226   12.4918   13.8807 N.am        1 MOL      -0.2802
     18 C18        -2.1657   13.5129   13.8918 C.2         1 MOL       0.1986
     19 O19        -2.5878   14.6225   13.5885 O.2         1 MOL      -0.3908
     20 C20        -0.8137   13.3485   14.2683 C.ar        1 MOL       0.0720
     21 C21        -0.3888   12.1606   14.9267 C.ar        1 MOL      -0.0533
     22 C22         0.9501   11.9542   15.3174 C.ar        1 MOL      -0.0339
     23 C23         1.9006   12.9599   15.0612 C.ar        1 MOL      -0.0299
     24 C24         1.3304   10.7413   15.9451 C.ar        1 MOL      -0.0299
     25 C25         0.9746   10.4852   17.2911 C.ar        1 MOL      -0.0581
     26 C26         1.3274    9.2677   17.9026 C.ar        1 MOL      -0.0288
     27 C27         2.0352    9.7523   15.2215 C.ar        1 MOL      -0.0581
     28 C28         2.3791    8.5318   15.8327 C.ar        1 MOL      -0.0288
     29 C29         2.0302    8.2905   17.1750 C.ar        1 MOL       0.1316
     30 F30         2.3470    7.1556   17.7377 F           1 MOL      -0.1840
     31 C31         0.1788   14.3464   14.0317 C.ar        1 MOL       0.1393
     32 O32        -0.0992   15.4997   13.3750 O.3         1 MOL      -0.3302
     33 C33         1.5157   14.1571   14.4381 C.ar        1 MOL       0.1232
     34 O34         2.4409   15.1189   14.2000 O.3         1 MOL      -0.3356
     35 C35       -11.8272   10.6426   10.7643 C.ar        1 MOL       0.0444
     36 N38       -12.2442    9.3464   10.7472 N.ar        1 MOL      -0.2825
     37 C39       -11.3775    8.2951   10.6274 C.ar        1 MOL       0.0619
     38 N40       -10.0403    8.5263   10.5268 N.ar        1 MOL      -0.2608
     39 H1         -7.3864    8.4931    9.9934 H           1 MOL       0.0998
     40 H2         -5.7917   11.0770    9.7655 H           1 MOL       0.0678
     41 H3         -6.0560   10.5172    7.8424 H           1 MOL       0.2101
     42 H4         -3.8316    9.9953   10.4677 H           1 MOL       0.0667
     43 H5         -3.6694    8.2934    9.2400 H           1 MOL       0.2102
     44 H6         -5.0372    8.1949   12.2806 H           1 MOL       0.0749
     45 H7        -13.8173   11.3666   10.9720 H           1 MOL       0.0446
     46 H8        -12.7296   12.4063   10.0342 H           1 MOL       0.0446
     47 H9        -12.5767   12.3216   11.8040 H           1 MOL       0.0446
     48 H10        -7.6675   12.3054   10.5722 H           1 MOL       0.1373
     49 H11        -4.7141    9.8689   13.8025 H           1 MOL       0.0477
     50 H12        -4.9668   11.8275   11.6952 H           1 MOL       0.0470
     51 H13        -4.9454   12.2602   14.5417 H           1 MOL       0.0643
     52 H14        -4.7794   13.4804   13.2787 H           1 MOL       0.0643
     53 H15        -2.6614   11.6222   14.1084 H           1 MOL       0.1864
     54 H16        -1.0552   11.4162   15.1341 H           1 MOL       0.0555
     55 H17         2.8765   12.8293   15.3398 H           1 MOL       0.0543
     56 H18         0.4643   11.1844   17.8355 H           1 MOL       0.0601
     57 H19         1.0662    9.0944   18.8766 H           1 MOL       0.0602
     58 H20         2.2847    9.9044   14.2404 H           1 MOL       0.0601
     59 H21         2.8785    7.8215   15.2963 H           1 MOL       0.0602
     60 H22        -0.2935   16.1582   14.0827 H           1 MOL       0.2479
     61 H23         2.5000   15.6391   15.0350 H           1 MOL       0.2443
     62 H24       -11.7343    7.3384   10.6287 H           1 MOL       0.1019
@<TRIPOS>BOND
     1     1     2   1
     2    10     1   1
     3     1    13   1
     4     2     3   1
     5     2     4   1
     6     4     5   1
     7     6     4   1
     8    13     6   1
     9     6    14   1
    10    35     7   1
    11     8     9   2
    12    12     8   1
    13    10     9   1
    14    11    10   1
    15    12    11  ar
    16    11    38  ar
    17    12    35  ar
    18    14    15   2
    19    15    16   1
    20    16    17   1
    21    17    18  am
    22    18    19   2
    23    18    20   1
    24    20    21  ar
    25    20    31  ar
    26    21    22  ar
    27    22    23  ar
    28    22    24   1
    29    23    33  ar
    30    24    25  ar
    31    24    27  ar
    32    25    26  ar
    33    26    29  ar
    34    27    28  ar
    35    28    29  ar
    36    29    30   1
    37    31    32   1
    38    31    33  ar
    39    33    34   1
    40    35    36  ar
    41    36    37  ar
    42    37    38  ar
    43     1    39   1
    44     2    40   1
    45     3    41   1
    46     4    42   1
    47     5    43   1
    48     6    44   1
    49     7    45   1
    50     7    46   1
    51     7    47   1
    52     9    48   1
    53    14    49   1
    54    15    50   1
    55    16    51   1
    56    16    52   1
    57    17    53   1
    58    21    54   1
    59    23    55   1
    60    25    56   1
    61    26    57   1
    62    27    58   1
    63    28    59   1
    64    32    60   1
    65    34    61   1
    66    37    62   1
@<TRIPOS>SUBSTRUCTURE
     1  MOL      1

