@<TRIPOS>MOLECULE
3nw9_ligand_046
    62    66
SMALL
GAST_HUCK
****
This file was generated by PARSER (from files_GN.cpp)

@<TRIPOS>ATOM
      1 C1         -5.9888   20.7056   17.1781 C.3         1 MOL       0.2034
      2 C2         -6.3501   19.2498   17.5458 C.3         1 MOL       0.1402
      3 O3         -6.9366   19.2021   18.8507 O.3         1 MOL      -0.3834
      4 C4         -4.9944   18.5045   17.4957 C.3         1 MOL       0.1189
      5 O5         -4.7844   17.6094   18.5931 O.3         1 MOL      -0.3846
      6 C6         -3.9216   19.6335   17.4387 C.3         1 MOL       0.1082
      7 C7         -5.7984   21.9759   11.1567 C.3         1 MOL      -0.0106
      8 N8         -6.3509   22.5954   14.1361 N.2         1 MOL      -0.2933
      9 C9         -6.4621   22.3913   15.4579 C.2         1 MOL       0.1151
     10 N10        -6.1279   21.1289   15.8035 N.pl3       1 MOL      -0.1882
     11 C11        -5.8238   20.5006   14.6499 C.ar        1 MOL       0.1683
     12 C12        -5.9593   21.4257   13.6139 C.ar        1 MOL       0.0876
     13 O13        -4.6248   20.8784   17.5774 O.3         1 MOL      -0.3296
     14 C14        -3.0924   19.6508   16.2407 C.2         1 MOL      -0.0658
     15 C15        -2.1557   20.5776   15.9810 C.2         1 MOL      -0.0744
     16 C16        -1.4007   20.5658   14.7357 C.3         1 MOL       0.0471
     17 N17        -0.7716   19.2879   14.5440 N.am        1 MOL      -0.2802
     18 C18        -1.2808   18.2535   13.8728 C.2         1 MOL       0.1986
     19 O19        -2.3171   18.3866   13.2271 O.2         1 MOL      -0.3908
     20 C20        -0.7217   16.9794   13.9869 C.ar        1 MOL       0.0720
     21 C21        -1.5659   15.8356   13.9673 C.ar        1 MOL      -0.0533
     22 C22        -1.0539   14.5207   14.0794 C.ar        1 MOL      -0.0339
     23 C23         0.3469   14.3629   14.1694 C.ar        1 MOL      -0.0299
     24 C24        -1.9161   13.3776   14.0935 C.ar        1 MOL      -0.0299
     25 C25        -2.9425   13.2128   13.1307 C.ar        1 MOL      -0.0581
     26 C26        -3.7591   12.0668   13.1280 C.ar        1 MOL      -0.0288
     27 C27        -1.7531   12.3610   15.0694 C.ar        1 MOL      -0.0581
     28 C28        -2.5789   11.2207   15.0799 C.ar        1 MOL      -0.0288
     29 C29        -3.5796   11.0680   14.1028 C.ar        1 MOL       0.1316
     30 F30        -4.3377   10.0062   14.1033 F           1 MOL      -0.1840
     31 C31         0.6794   16.7789   14.1146 C.ar        1 MOL       0.1393
     32 O32         1.5363   17.8350   14.1251 O.3         1 MOL      -0.3302
     33 C33         1.2064   15.4747   14.1922 C.ar        1 MOL       0.1232
     34 O34         2.5462   15.2836   14.1571 O.3         1 MOL      -0.3356
     35 C35        -5.6832   21.0379   12.2869 C.ar        1 MOL       0.0444
     36 N38        -5.2928   19.7479   12.0854 N.ar        1 MOL      -0.2825
     37 C39        -5.1528   18.8584   13.1112 C.ar        1 MOL       0.0619
     38 N40        -5.4222   19.2329   14.3898 N.ar        1 MOL      -0.2608
     39 H1         -6.5922   21.3710   17.8080 H           1 MOL       0.0998
     40 H2         -7.0723   18.8294   16.8385 H           1 MOL       0.0678
     41 H3         -7.1296   18.2527   19.0074 H           1 MOL       0.2101
     42 H4         -4.9716   17.8852   16.5950 H           1 MOL       0.0667
     43 H5         -4.7935   18.1627   19.4018 H           1 MOL       0.2102
     44 H6         -3.2437   19.5334   18.2931 H           1 MOL       0.0749
     45 H7         -5.5751   21.4769   10.2136 H           1 MOL       0.0446
     46 H8         -5.0912   22.7949   11.2936 H           1 MOL       0.0446
     47 H9         -6.8115   22.3788   11.1031 H           1 MOL       0.0446
     48 H10        -6.7440   23.1196   16.1139 H           1 MOL       0.1373
     49 H11        -3.2111   18.9167   15.5848 H           1 MOL       0.0477
     50 H12        -1.9959   21.3146   16.6336 H           1 MOL       0.0470
     51 H13        -0.6207   21.3305   14.7631 H           1 MOL       0.0643
     52 H14        -2.0771   20.8250   13.9139 H           1 MOL       0.0643
     53 H15         0.0000   19.1046   15.1020 H           1 MOL       0.1864
     54 H16        -2.5808   15.9669   13.9135 H           1 MOL       0.0555
     55 H17         0.7547   13.4238   14.1869 H           1 MOL       0.0543
     56 H18        -3.0881   13.9173   12.3998 H           1 MOL       0.0601
     57 H19        -4.4817   11.9579   12.4112 H           1 MOL       0.0602
     58 H20        -1.0318   12.4442   15.7912 H           1 MOL       0.0601
     59 H21        -2.4454   10.5008   15.7937 H           1 MOL       0.0602
     60 H22         2.1440   17.7152   13.3613 H           1 MOL       0.2479
     61 H23         2.8162   14.8647   15.0082 H           1 MOL       0.2443
     62 H24        -4.8407   17.9073   12.9196 H           1 MOL       0.1019
@<TRIPOS>BOND
     1     1     2   1
     2    10     1   1
     3     1    13   1
     4     2     3   1
     5     2     4   1
     6     4     5   1
     7     6     4   1
     8    13     6   1
     9     6    14   1
    10    35     7   1
    11     8     9   2
    12    12     8   1
    13    10     9   1
    14    11    10   1
    15    12    11  ar
    16    11    38  ar
    17    12    35  ar
    18    14    15   2
    19    15    16   1
    20    16    17   1
    21    17    18  am
    22    18    19   2
    23    18    20   1
    24    20    21  ar
    25    20    31  ar
    26    21    22  ar
    27    22    23  ar
    28    22    24   1
    29    23    33  ar
    30    24    25  ar
    31    24    27  ar
    32    25    26  ar
    33    26    29  ar
    34    27    28  ar
    35    28    29  ar
    36    29    30   1
    37    31    32   1
    38    31    33  ar
    39    33    34   1
    40    35    36  ar
    41    36    37  ar
    42    37    38  ar
    43     1    39   1
    44     2    40   1
    45     3    41   1
    46     4    42   1
    47     5    43   1
    48     6    44   1
    49     7    45   1
    50     7    46   1
    51     7    47   1
    52     9    48   1
    53    14    49   1
    54    15    50   1
    55    16    51   1
    56    16    52   1
    57    17    53   1
    58    21    54   1
    59    23    55   1
    60    25    56   1
    61    26    57   1
    62    27    58   1
    63    28    59   1
    64    32    60   1
    65    34    61   1
    66    37    62   1
@<TRIPOS>SUBSTRUCTURE
     1  MOL      1

