@<TRIPOS>MOLECULE
3nw9_ligand_076
    62    66
SMALL
GAST_HUCK
****
This file was generated by PARSER (from files_GN.cpp)

@<TRIPOS>ATOM
      1 C1         -7.5942   12.5674   14.3243 C.3         1 MOL       0.2034
      2 C2         -6.5185   13.0685   13.3384 C.3         1 MOL       0.1402
      3 O3         -7.0419   13.8687   12.2746 O.3         1 MOL      -0.3834
      4 C4         -5.8828   11.7548   12.8646 C.3         1 MOL       0.1189
      5 O5         -6.6065   11.1622   11.7848 O.3         1 MOL      -0.3846
      6 C6         -5.9686   10.8698   14.1396 C.3         1 MOL       0.1082
      7 C7         -9.6029   16.9547   18.1042 C.3         1 MOL      -0.0106
      8 N8         -7.6462   14.7141   17.2371 N.2         1 MOL      -0.2933
      9 C9         -7.1187   13.7306   16.4843 C.2         1 MOL       0.1151
     10 N10        -7.8559   13.5161   15.3746 N.pl3       1 MOL      -0.1882
     11 C11        -8.8668   14.4049   15.4135 C.ar        1 MOL       0.1683
     12 C12        -8.7336   15.1424   16.5870 C.ar        1 MOL       0.0876
     13 O13        -7.1659   11.2882   14.8280 O.3         1 MOL      -0.3296
     14 C14        -4.8329   10.9723   15.0435 C.2         1 MOL      -0.0658
     15 C15        -3.5618   10.7136   14.6819 C.2         1 MOL      -0.0744
     16 C16        -2.4158   11.0481   15.5133 C.3         1 MOL       0.0471
     17 N17        -1.7126   12.1913   15.0103 N.am        1 MOL      -0.2802
     18 C18        -2.1592   13.4600   14.9789 C.2         1 MOL       0.1986
     19 O19        -3.3419   13.6449   15.2930 O.2         1 MOL      -0.3908
     20 C20        -1.3799   14.5622   14.5593 C.ar        1 MOL       0.0720
     21 C21        -2.0125   15.8160   14.3320 C.ar        1 MOL      -0.0533
     22 C22        -1.3138   17.0022   13.9748 C.ar        1 MOL      -0.0339
     23 C23         0.0895   16.9077   13.8455 C.ar        1 MOL      -0.0299
     24 C24        -1.9946   18.2553   13.8063 C.ar        1 MOL      -0.0299
     25 C25        -3.2874   18.3231   13.2192 C.ar        1 MOL      -0.0581
     26 C26        -3.9624   19.5494   13.0674 C.ar        1 MOL      -0.0288
     27 C27        -1.4173   19.4746   14.2421 C.ar        1 MOL      -0.0581
     28 C28        -2.0827   20.7055   14.0863 C.ar        1 MOL      -0.0288
     29 C29        -3.3638   20.7468   13.5039 C.ar        1 MOL       0.1316
     30 F30        -3.9831   21.8863   13.3694 F           1 MOL      -0.1840
     31 C31         0.0382   14.5170   14.3948 C.ar        1 MOL       0.1393
     32 O32         0.7494   13.3796   14.6067 O.3         1 MOL      -0.3302
     33 C33         0.7591   15.6941   14.0639 C.ar        1 MOL       0.1232
     34 O34         2.1103   15.6682   13.9946 O.3         1 MOL      -0.3356
     35 C35        -9.6821   16.1449   16.8767 C.ar        1 MOL       0.0444
     36 N38       -10.6834   16.3470   15.9750 N.ar        1 MOL      -0.2825
     37 C39       -10.7886   15.6237   14.8253 C.ar        1 MOL       0.0619
     38 N40        -9.8790   14.6507   14.5453 N.ar        1 MOL      -0.2608
     39 H1         -8.5134   12.3727   13.7630 H           1 MOL       0.0998
     40 H2         -5.7638   13.6644   13.8686 H           1 MOL       0.0678
     41 H3         -7.7357   13.3226   11.8506 H           1 MOL       0.2101
     42 H4         -4.8559   11.9254   12.5254 H           1 MOL       0.0667
     43 H5         -7.5256   11.0494   12.1063 H           1 MOL       0.2102
     44 H6         -6.0763    9.8194   13.8617 H           1 MOL       0.0749
     45 H7        -10.4253   17.6728   18.1535 H           1 MOL       0.0446
     46 H8         -8.6606   17.5048   18.1233 H           1 MOL       0.0446
     47 H9         -9.6572   16.3060   18.9806 H           1 MOL       0.0446
     48 H10        -6.2699   13.2266   16.7384 H           1 MOL       0.1373
     49 H11        -4.9960   11.3149   15.9558 H           1 MOL       0.0477
     50 H12        -3.3901   10.3669   13.7596 H           1 MOL       0.0470
     51 H13        -1.7289   10.1987   15.5190 H           1 MOL       0.0643
     52 H14        -2.7101   11.2358   16.5499 H           1 MOL       0.0643
     53 H15        -0.7968   12.0501   14.7040 H           1 MOL       0.1864
     54 H16        -3.0305   15.8941   14.4640 H           1 MOL       0.0555
     55 H17         0.6515   17.7207   13.5775 H           1 MOL       0.0543
     56 H18        -3.7518   17.4769   12.8757 H           1 MOL       0.0601
     57 H19        -4.8900   19.5767   12.6304 H           1 MOL       0.0602
     58 H20        -0.5022   19.4806   14.7010 H           1 MOL       0.0601
     59 H21        -1.6337   21.5711   14.4009 H           1 MOL       0.0602
     60 H22         1.2344   13.2434   13.7538 H           1 MOL       0.2479
     61 H23         2.4133   16.1259   14.8048 H           1 MOL       0.2443
     62 H24       -11.5517   15.8103   14.1745 H           1 MOL       0.1019
@<TRIPOS>BOND
     1     1     2   1
     2    10     1   1
     3     1    13   1
     4     2     3   1
     5     2     4   1
     6     4     5   1
     7     6     4   1
     8    13     6   1
     9     6    14   1
    10    35     7   1
    11     8     9   2
    12    12     8   1
    13    10     9   1
    14    11    10   1
    15    12    11  ar
    16    11    38  ar
    17    12    35  ar
    18    14    15   2
    19    15    16   1
    20    16    17   1
    21    17    18  am
    22    18    19   2
    23    18    20   1
    24    20    21  ar
    25    20    31  ar
    26    21    22  ar
    27    22    23  ar
    28    22    24   1
    29    23    33  ar
    30    24    25  ar
    31    24    27  ar
    32    25    26  ar
    33    26    29  ar
    34    27    28  ar
    35    28    29  ar
    36    29    30   1
    37    31    32   1
    38    31    33  ar
    39    33    34   1
    40    35    36  ar
    41    36    37  ar
    42    37    38  ar
    43     1    39   1
    44     2    40   1
    45     3    41   1
    46     4    42   1
    47     5    43   1
    48     6    44   1
    49     7    45   1
    50     7    46   1
    51     7    47   1
    52     9    48   1
    53    14    49   1
    54    15    50   1
    55    16    51   1
    56    16    52   1
    57    17    53   1
    58    21    54   1
    59    23    55   1
    60    25    56   1
    61    26    57   1
    62    27    58   1
    63    28    59   1
    64    32    60   1
    65    34    61   1
    66    37    62   1
@<TRIPOS>SUBSTRUCTURE
     1  MOL      1

