@<TRIPOS>MOLECULE
3nw9_ligand_027
    62    66
SMALL
GAST_HUCK
****
This file was generated by PARSER (from files_GN.cpp)

@<TRIPOS>ATOM
      1 C1         -5.7062   20.8728   14.4336 C.3         1 MOL       0.2034
      2 C2         -6.8074   21.3668   15.3962 C.3         1 MOL       0.1402
      3 O3         -6.9469   22.7853   15.4054 O.3         1 MOL      -0.3834
      4 C4         -6.4174   20.7723   16.7638 C.3         1 MOL       0.1189
      5 O5         -5.9480   21.7397   17.6981 O.3         1 MOL      -0.3846
      6 C6         -5.3037   19.7400   16.4350 C.3         1 MOL       0.1082
      7 C7         -8.1862   21.4647    8.8494 C.3         1 MOL      -0.0106
      8 N8         -6.8648   19.8783   11.1491 N.2         1 MOL      -0.2933
      9 C9         -6.3344   19.6347   12.3632 C.2         1 MOL       0.1151
     10 N10        -6.1756   20.7693   13.0713 N.pl3       1 MOL      -0.1882
     11 C11        -6.5937   21.7731   12.2708 C.ar        1 MOL       0.1683
     12 C12        -7.0591   21.2010   11.0839 C.ar        1 MOL       0.0876
     13 O13        -5.3068   19.6071   15.0015 O.3         1 MOL      -0.3296
     14 C14        -5.4801   18.4291   17.0543 C.2         1 MOL      -0.0658
     15 C15        -4.5640   17.4494   16.9921 C.2         1 MOL      -0.0744
     16 C16        -4.7582   16.1385   17.5854 C.3         1 MOL       0.0471
     17 N17        -4.2490   16.0943   18.9179 N.am        1 MOL      -0.2802
     18 C18        -4.2307   15.0101   19.6881 C.2         1 MOL       0.1986
     19 O19        -4.6547   13.9350   19.2795 O.2         1 MOL      -0.3908
     20 C20        -3.6759   15.0759   20.9557 C.ar        1 MOL       0.0720
     21 C21        -2.8595   14.0145   21.4190 C.ar        1 MOL      -0.0533
     22 C22        -2.1773   14.0806   22.6629 C.ar        1 MOL      -0.0339
     23 C23        -2.3760   15.2348   23.4605 C.ar        1 MOL      -0.0299
     24 C24        -1.3170   13.0139   23.0886 C.ar        1 MOL      -0.0299
     25 C25        -1.2733   12.6082   24.4496 C.ar        1 MOL      -0.0581
     26 C26        -0.4263   11.5665   24.8696 C.ar        1 MOL      -0.0288
     27 C27        -0.4870   12.3221   22.1675 C.ar        1 MOL      -0.0581
     28 C28         0.3436   11.2676   22.5850 C.ar        1 MOL      -0.0288
     29 C29         0.3787   10.8897   23.9384 C.ar        1 MOL       0.1316
     30 F30         1.1535    9.9135   24.3273 F           1 MOL      -0.1840
     31 C31        -3.8660   16.2039   21.7878 C.ar        1 MOL       0.1393
     32 O32        -4.7301   17.1895   21.4189 O.3         1 MOL      -0.3302
     33 C33        -3.2221   16.2789   23.0391 C.ar        1 MOL       0.1232
     34 O34        -3.4471   17.3439   23.8489 O.3         1 MOL      -0.3356
     35 C35        -7.6236   22.0250   10.0890 C.ar        1 MOL       0.0444
     36 N38        -7.6433   23.3688   10.3172 N.ar        1 MOL      -0.2825
     37 C39        -7.1453   23.9152   11.4588 C.ar        1 MOL       0.0619
     38 N40        -6.6278   23.1177   12.4350 N.ar        1 MOL      -0.2608
     39 H1         -4.8461   21.5508   14.4524 H           1 MOL       0.0998
     40 H2         -7.7713   20.9474   15.0882 H           1 MOL       0.0678
     41 H3         -6.0354   23.1375   15.4899 H           1 MOL       0.2101
     42 H4         -7.3004   20.3115   17.2098 H           1 MOL       0.0667
     43 H5         -5.4867   22.4218   17.1574 H           1 MOL       0.2102
     44 H6         -4.3322   20.1608   16.7306 H           1 MOL       0.0749
     45 H7         -8.6497   22.2426    8.2427 H           1 MOL       0.0446
     46 H8         -8.9452   20.7183    9.0894 H           1 MOL       0.0446
     47 H9         -7.3965   20.9890    8.2682 H           1 MOL       0.0446
     48 H10        -6.0901   18.6950   12.6810 H           1 MOL       0.1373
     49 H11        -6.3306   18.2438   17.5303 H           1 MOL       0.0477
     50 H12        -3.6994   17.6255   16.5375 H           1 MOL       0.0470
     51 H13        -4.2306   15.3986   16.9777 H           1 MOL       0.0643
     52 H14        -5.8175   15.8615   17.6058 H           1 MOL       0.0643
     53 H15        -3.8851   16.9155   19.2963 H           1 MOL       0.1864
     54 H16        -2.7428   13.1860   20.8285 H           1 MOL       0.0555
     55 H17        -1.9036   15.3304   24.3636 H           1 MOL       0.0543
     56 H18        -1.8662   13.0623   25.1467 H           1 MOL       0.0601
     57 H19        -0.4026   11.3010   25.8560 H           1 MOL       0.0602
     58 H20        -0.4670   12.5895   21.1815 H           1 MOL       0.0601
     59 H21         0.9217   10.7748   21.9019 H           1 MOL       0.0602
     60 H22        -4.2363   18.0306   21.5223 H           1 MOL       0.2479
     61 H23        -2.6463   17.9081   23.7596 H           1 MOL       0.2443
     62 H24        -7.1742   24.9260   11.5976 H           1 MOL       0.1019
@<TRIPOS>BOND
     1     1     2   1
     2    10     1   1
     3     1    13   1
     4     2     3   1
     5     2     4   1
     6     4     5   1
     7     6     4   1
     8    13     6   1
     9     6    14   1
    10    35     7   1
    11     8     9   2
    12    12     8   1
    13    10     9   1
    14    11    10   1
    15    12    11  ar
    16    11    38  ar
    17    12    35  ar
    18    14    15   2
    19    15    16   1
    20    16    17   1
    21    17    18  am
    22    18    19   2
    23    18    20   1
    24    20    21  ar
    25    20    31  ar
    26    21    22  ar
    27    22    23  ar
    28    22    24   1
    29    23    33  ar
    30    24    25  ar
    31    24    27  ar
    32    25    26  ar
    33    26    29  ar
    34    27    28  ar
    35    28    29  ar
    36    29    30   1
    37    31    32   1
    38    31    33  ar
    39    33    34   1
    40    35    36  ar
    41    36    37  ar
    42    37    38  ar
    43     1    39   1
    44     2    40   1
    45     3    41   1
    46     4    42   1
    47     5    43   1
    48     6    44   1
    49     7    45   1
    50     7    46   1
    51     7    47   1
    52     9    48   1
    53    14    49   1
    54    15    50   1
    55    16    51   1
    56    16    52   1
    57    17    53   1
    58    21    54   1
    59    23    55   1
    60    25    56   1
    61    26    57   1
    62    27    58   1
    63    28    59   1
    64    32    60   1
    65    34    61   1
    66    37    62   1
@<TRIPOS>SUBSTRUCTURE
     1  MOL      1

