@<TRIPOS>MOLECULE
3nw9_ligand_062
    62    66
SMALL
GAST_HUCK
****
This file was generated by PARSER (from files_GN.cpp)

@<TRIPOS>ATOM
      1 C1         -8.0938   19.4247   18.6953 C.3         1 MOL       0.2034
      2 C2         -7.8745   17.9468   18.2922 C.3         1 MOL       0.1402
      3 O3         -8.7743   17.0555   18.9525 O.3         1 MOL      -0.3834
      4 C4         -6.4092   17.6917   18.6634 C.3         1 MOL       0.1189
      5 O5         -6.2790   17.3019   20.0366 O.3         1 MOL      -0.3846
      6 C6         -5.7648   19.0791   18.4428 C.3         1 MOL       0.1082
      7 C7        -13.0031   21.4806   15.6518 C.3         1 MOL      -0.0106
      8 N8        -10.0087   21.5133   16.4363 N.2         1 MOL      -0.2933
      9 C9         -8.8653   21.1377   17.0399 C.2         1 MOL       0.1151
     10 N10        -9.0735   20.1079   17.8888 N.pl3       1 MOL      -0.1882
     11 C11       -10.3942   19.8407   17.8397 C.ar        1 MOL       0.1683
     12 C12       -10.9683   20.7116   16.9180 C.ar        1 MOL       0.0876
     13 O13        -6.8004   20.0559   18.6487 O.3         1 MOL      -0.3296
     14 C14        -5.1758   19.2637   17.1165 C.2         1 MOL      -0.0658
     15 C15        -3.9451   19.7677   16.9132 C.2         1 MOL      -0.0744
     16 C16        -3.3920   20.0374   15.5991 C.3         1 MOL       0.0471
     17 N17        -2.5050   18.9743   15.2263 N.am        1 MOL      -0.2802
     18 C18        -2.5681   18.2372   14.1183 C.2         1 MOL       0.1986
     19 O19        -3.4332   18.4570   13.2652 O.2         1 MOL      -0.3908
     20 C20        -1.7711   17.1114   13.9832 C.ar        1 MOL       0.0720
     21 C21        -2.3905   15.8443   13.8278 C.ar        1 MOL      -0.0533
     22 C22        -1.6362   14.6473   13.8011 C.ar        1 MOL      -0.0339
     23 C23        -0.2291   14.7337   13.8891 C.ar        1 MOL      -0.0299
     24 C24        -2.3031   13.3912   13.7601 C.ar        1 MOL      -0.0299
     25 C25        -2.1008   12.4374   14.7888 C.ar        1 MOL      -0.0581
     26 C26        -2.8166   11.2242   14.7957 C.ar        1 MOL      -0.0288
     27 C27        -3.2353   13.0905   12.7341 C.ar        1 MOL      -0.0581
     28 C28        -3.9372   11.8685   12.7350 C.ar        1 MOL      -0.0288
     29 C29        -3.7325   10.9392   13.7693 C.ar        1 MOL       0.1316
     30 F30        -4.3986    9.8147   13.7796 F           1 MOL      -0.1840
     31 C31        -0.3543   17.1662   14.0508 C.ar        1 MOL       0.1393
     32 O32         0.2935   18.3565   14.1106 O.3         1 MOL      -0.3302
     33 C33         0.4134   15.9835   13.9887 C.ar        1 MOL       0.1232
     34 O34         1.7717   16.0219   13.9865 O.3         1 MOL      -0.3356
     35 C35       -12.3458   20.6142   16.6444 C.ar        1 MOL       0.0444
     36 N38       -13.0571   19.6574   17.3079 N.ar        1 MOL      -0.2825
     37 C39       -12.4790   18.8218   18.2162 C.ar        1 MOL       0.0619
     38 N40       -11.1502   18.9126   18.4788 N.ar        1 MOL      -0.2608
     39 H1         -8.4276   19.4695   19.7360 H           1 MOL       0.0998
     40 H2         -7.9985   17.8338   17.2116 H           1 MOL       0.0678
     41 H3         -8.5642   16.1668   18.5952 H           1 MOL       0.2101
     42 H4         -5.9634   16.9100   18.0399 H           1 MOL       0.0667
     43 H5         -6.7130   16.4258   20.1032 H           1 MOL       0.2102
     44 H6         -5.0076   19.2386   19.2136 H           1 MOL       0.0749
     45 H7        -14.0684   21.2607   15.5813 H           1 MOL       0.0446
     46 H8        -12.5492   21.3205   14.6731 H           1 MOL       0.0446
     47 H9        -12.8817   22.5284   15.9368 H           1 MOL       0.0446
     48 H10        -7.9641   21.5861   16.8568 H           1 MOL       0.1373
     49 H11        -5.7402   19.0468   16.3228 H           1 MOL       0.0477
     50 H12        -3.3964   20.0242   17.7027 H           1 MOL       0.0470
     51 H13        -2.8142   20.9731   15.6411 H           1 MOL       0.0643
     52 H14        -4.1867   20.1929   14.8736 H           1 MOL       0.0643
     53 H15        -1.8284   18.7205   15.8715 H           1 MOL       0.1864
     54 H16        -3.4112   15.7871   13.7940 H           1 MOL       0.0555
     55 H17         0.3399   13.8842   13.8704 H           1 MOL       0.0543
     56 H18        -1.4561   12.6338   15.5572 H           1 MOL       0.0601
     57 H19        -2.6709   10.5555   15.5572 H           1 MOL       0.0602
     58 H20        -3.4082   13.7571   11.9788 H           1 MOL       0.0601
     59 H21        -4.6034   11.6670   11.9846 H           1 MOL       0.0602
     60 H22         0.1933   18.7238   13.2062 H           1 MOL       0.2479
     61 H23         2.0312   16.4155   14.8486 H           1 MOL       0.2443
     62 H24       -13.0452   18.1121   18.6849 H           1 MOL       0.1019
@<TRIPOS>BOND
     1     1     2   1
     2    10     1   1
     3     1    13   1
     4     2     3   1
     5     2     4   1
     6     4     5   1
     7     6     4   1
     8    13     6   1
     9     6    14   1
    10    35     7   1
    11     8     9   2
    12    12     8   1
    13    10     9   1
    14    11    10   1
    15    12    11  ar
    16    11    38  ar
    17    12    35  ar
    18    14    15   2
    19    15    16   1
    20    16    17   1
    21    17    18  am
    22    18    19   2
    23    18    20   1
    24    20    21  ar
    25    20    31  ar
    26    21    22  ar
    27    22    23  ar
    28    22    24   1
    29    23    33  ar
    30    24    25  ar
    31    24    27  ar
    32    25    26  ar
    33    26    29  ar
    34    27    28  ar
    35    28    29  ar
    36    29    30   1
    37    31    32   1
    38    31    33  ar
    39    33    34   1
    40    35    36  ar
    41    36    37  ar
    42    37    38  ar
    43     1    39   1
    44     2    40   1
    45     3    41   1
    46     4    42   1
    47     5    43   1
    48     6    44   1
    49     7    45   1
    50     7    46   1
    51     7    47   1
    52     9    48   1
    53    14    49   1
    54    15    50   1
    55    16    51   1
    56    16    52   1
    57    17    53   1
    58    21    54   1
    59    23    55   1
    60    25    56   1
    61    26    57   1
    62    27    58   1
    63    28    59   1
    64    32    60   1
    65    34    61   1
    66    37    62   1
@<TRIPOS>SUBSTRUCTURE
     1  MOL      1

