@<TRIPOS>MOLECULE
3nw9_ligand_068
    62    66
SMALL
GAST_HUCK
****
This file was generated by PARSER (from files_GN.cpp)

@<TRIPOS>ATOM
      1 C1         -0.4201    7.6990   16.7975 C.3         1 MOL       0.2034
      2 C2          0.7796    8.6202   16.4835 C.3         1 MOL       0.1402
      3 O3          2.0434    8.0019   16.7293 O.3         1 MOL      -0.3834
      4 C4          0.5048    9.8110   17.4093 C.3         1 MOL       0.1189
      5 O5          0.9969    9.5323   18.7251 O.3         1 MOL      -0.3846
      6 C6         -1.0423    9.8837   17.4082 C.3         1 MOL       0.1082
      7 C7         -2.4135    4.4514   11.9932 C.3         1 MOL      -0.0106
      8 N8         -0.4700    5.0927   14.3048 N.2         1 MOL      -0.2933
      9 C9          0.0491    5.7359   15.3670 C.2         1 MOL       0.1151
     10 N10        -0.7133    6.7939   15.7211 N.pl3       1 MOL      -0.1882
     11 C11        -1.7489    6.8232   14.8607 C.ar        1 MOL       0.1683
     12 C12        -1.5865    5.7568   13.9768 C.ar        1 MOL       0.0876
     13 O13        -1.5245    8.5578   17.1367 O.3         1 MOL      -0.3296
     14 C14        -1.6245   10.7670   16.4050 C.2         1 MOL      -0.0658
     15 C15        -2.9334   11.0774   16.3836 C.2         1 MOL      -0.0744
     16 C16        -3.5518   11.8427   15.3153 C.3         1 MOL       0.0471
     17 N17        -2.8585   13.0796   15.0978 N.am        1 MOL      -0.2802
     18 C18        -1.9725   13.3249   14.1364 C.2         1 MOL       0.1986
     19 O19        -1.6635   12.4809   13.3025 O.2         1 MOL      -0.3908
     20 C20        -1.2871   14.5232   14.1036 C.ar        1 MOL       0.0720
     21 C21        -1.9880   15.7517   14.0433 C.ar        1 MOL      -0.0533
     22 C22        -1.3087   16.9931   13.8965 C.ar        1 MOL      -0.0339
     23 C23         0.1087   16.9668   13.8767 C.ar        1 MOL      -0.0299
     24 C24        -2.0243   18.2314   13.7584 C.ar        1 MOL      -0.0299
     25 C25        -1.4397   19.4805   14.1096 C.ar        1 MOL      -0.0581
     26 C26        -2.1340   20.6937   13.9287 C.ar        1 MOL      -0.0288
     27 C27        -3.3445   18.2568   13.2311 C.ar        1 MOL      -0.0581
     28 C28        -4.0442   19.4659   13.0561 C.ar        1 MOL      -0.0288
     29 C29        -3.4392   20.6877   13.4025 C.ar        1 MOL       0.1316
     30 F30        -4.0834   21.8116   13.2314 F           1 MOL      -0.1840
     31 C31         0.1279   14.5328   14.0901 C.ar        1 MOL       0.1393
     32 O32         0.8302   13.3744   14.2109 O.3         1 MOL      -0.3302
     33 C33         0.8157   15.7580   14.0041 C.ar        1 MOL       0.1232
     34 O34         2.1686   15.7908   14.0423 O.3         1 MOL      -0.3356
     35 C35        -2.5378    5.5570   12.9576 C.ar        1 MOL       0.0444
     36 N38        -3.5850    6.4274   12.8921 N.ar        1 MOL      -0.2825
     37 C39        -3.7318    7.4612   13.7676 C.ar        1 MOL       0.0619
     38 N40        -2.8118    7.6610   14.7486 N.ar        1 MOL      -0.2608
     39 H1         -0.2058    7.1126   17.6982 H           1 MOL       0.0998
     40 H2          0.7439    8.9480   15.4377 H           1 MOL       0.0678
     41 H3          2.1845    7.3898   15.9770 H           1 MOL       0.2101
     42 H4          0.9799   10.7235   17.0426 H           1 MOL       0.0667
     43 H5          0.7654   10.3219   19.2614 H           1 MOL       0.2102
     44 H6         -1.3819   10.1864   18.4034 H           1 MOL       0.0749
     45 H7         -3.2348    4.4660   11.2750 H           1 MOL       0.0446
     46 H8         -2.4300    3.4972   12.5214 H           1 MOL       0.0446
     47 H9         -1.4729    4.5401   11.4477 H           1 MOL       0.0446
     48 H10         0.9121    5.4454   15.8345 H           1 MOL       0.1373
     49 H11        -1.0443   11.0799   15.6577 H           1 MOL       0.0477
     50 H12        -3.5223   10.7434   17.1125 H           1 MOL       0.0470
     51 H13        -4.5827   12.0851   15.5897 H           1 MOL       0.0643
     52 H14        -3.6017   11.2086   14.4239 H           1 MOL       0.0643
     53 H15        -3.0154   13.7933   15.7372 H           1 MOL       0.1864
     54 H16        -3.0141   15.7298   14.0897 H           1 MOL       0.0555
     55 H17         0.6452   17.8292   13.7427 H           1 MOL       0.0543
     56 H18        -0.4962   19.5307   14.5062 H           1 MOL       0.0601
     57 H19        -1.6850   21.5771   14.1903 H           1 MOL       0.0602
     58 H20        -3.8125   17.3959   12.9353 H           1 MOL       0.0601
     59 H21        -4.9926   19.4505   12.6621 H           1 MOL       0.0602
     60 H22         0.9604   13.0556   13.2876 H           1 MOL       0.2479
     61 H23         2.3870   16.1466   14.9377 H           1 MOL       0.2443
     62 H24        -4.5296    8.0916   13.6829 H           1 MOL       0.1019
@<TRIPOS>BOND
     1     1     2   1
     2    10     1   1
     3     1    13   1
     4     2     3   1
     5     2     4   1
     6     4     5   1
     7     6     4   1
     8    13     6   1
     9     6    14   1
    10    35     7   1
    11     8     9   2
    12    12     8   1
    13    10     9   1
    14    11    10   1
    15    12    11  ar
    16    11    38  ar
    17    12    35  ar
    18    14    15   2
    19    15    16   1
    20    16    17   1
    21    17    18  am
    22    18    19   2
    23    18    20   1
    24    20    21  ar
    25    20    31  ar
    26    21    22  ar
    27    22    23  ar
    28    22    24   1
    29    23    33  ar
    30    24    25  ar
    31    24    27  ar
    32    25    26  ar
    33    26    29  ar
    34    27    28  ar
    35    28    29  ar
    36    29    30   1
    37    31    32   1
    38    31    33  ar
    39    33    34   1
    40    35    36  ar
    41    36    37  ar
    42    37    38  ar
    43     1    39   1
    44     2    40   1
    45     3    41   1
    46     4    42   1
    47     5    43   1
    48     6    44   1
    49     7    45   1
    50     7    46   1
    51     7    47   1
    52     9    48   1
    53    14    49   1
    54    15    50   1
    55    16    51   1
    56    16    52   1
    57    17    53   1
    58    21    54   1
    59    23    55   1
    60    25    56   1
    61    26    57   1
    62    27    58   1
    63    28    59   1
    64    32    60   1
    65    34    61   1
    66    37    62   1
@<TRIPOS>SUBSTRUCTURE
     1  MOL      1

