@<TRIPOS>MOLECULE
3nw9_ligand_012
    62    66
SMALL
GAST_HUCK
****
This file was generated by PARSER (from files_GN.cpp)

@<TRIPOS>ATOM
      1 C1         -5.7756   21.4368   14.3468 C.3         1 MOL       0.2034
      2 C2         -6.8451   21.2777   15.4620 C.3         1 MOL       0.1402
      3 O3         -6.9794   22.4730   16.2360 O.3         1 MOL      -0.3834
      4 C4         -6.3307   20.1000   16.3036 C.3         1 MOL       0.1189
      5 O5         -6.6136   20.2168   17.6988 O.3         1 MOL      -0.3846
      6 C6         -4.8182   20.1171   16.0165 C.3         1 MOL       0.1082
      7 C7         -8.4257   21.1933    8.8349 C.3         1 MOL      -0.0106
      8 N8         -7.0308   19.9438   11.3022 N.2         1 MOL      -0.2933
      9 C9         -6.4735   19.8819   12.5234 C.2         1 MOL       0.1151
     10 N10        -6.2813   21.1150   13.0402 N.pl3       1 MOL      -0.1882
     11 C11        -6.7335   21.9831   12.1205 C.ar        1 MOL       0.1683
     12 C12        -7.2235   21.2447   11.0456 C.ar        1 MOL       0.0876
     13 O13        -4.6663   20.5808   14.6683 O.3         1 MOL      -0.3296
     14 C14        -4.1594   18.8289   16.1805 C.2         1 MOL      -0.0658
     15 C15        -4.3791   17.7842   15.3630 C.2         1 MOL      -0.0744
     16 C16        -3.5757   16.5801   15.3676 C.3         1 MOL       0.0471
     17 N17        -2.1770   16.6949   15.0539 N.am        1 MOL      -0.2802
     18 C18        -1.4888   17.6760   14.4767 C.2         1 MOL       0.1986
     19 O19        -2.0696   18.6555   14.0229 O.2         1 MOL      -0.3908
     20 C20        -0.0888   17.6387   14.4213 C.ar        1 MOL       0.0720
     21 C21         0.6487   18.8488   14.5098 C.ar        1 MOL      -0.0533
     22 C22         2.0595   18.8667   14.4801 C.ar        1 MOL      -0.0339
     23 C23         2.7610   17.6525   14.3574 C.ar        1 MOL      -0.0299
     24 C24         2.7588   20.0930   14.5339 C.ar        1 MOL      -0.0299
     25 C25         2.6045   21.0308   13.4893 C.ar        1 MOL      -0.0581
     26 C26         3.2498   22.2775   13.5531 C.ar        1 MOL      -0.0288
     27 C27         3.5909   20.4106   15.6317 C.ar        1 MOL      -0.0581
     28 C28         4.2474   21.6550   15.6871 C.ar        1 MOL      -0.0288
     29 C29         4.0750   22.5897   14.6496 C.ar        1 MOL       0.1316
     30 F30         4.6629   23.7543   14.7089 F           1 MOL      -0.1840
     31 C31         0.6491   16.4289   14.2948 C.ar        1 MOL       0.1393
     32 O32         0.0328   15.2359   14.1046 O.3         1 MOL      -0.3302
     33 C33         2.0578   16.4393   14.2822 C.ar        1 MOL       0.1232
     34 O34         2.7506   15.2985   14.0761 O.3         1 MOL      -0.3356
     35 C35        -7.8272   21.9199    9.9679 C.ar        1 MOL       0.0444
     36 N38        -7.8816   23.2810   10.0298 N.ar        1 MOL      -0.2825
     37 C39        -7.3763   23.9875   11.0788 C.ar        1 MOL       0.0619
     38 N40        -6.8065   23.3384   12.1289 N.ar        1 MOL      -0.2608
     39 H1         -5.3908   22.4617   14.3439 H           1 MOL       0.0998
     40 H2         -7.8325   21.0389   15.0567 H           1 MOL       0.0678
     41 H3         -6.0666   22.7574   16.4511 H           1 MOL       0.2101
     42 H4         -6.7908   19.1792   15.9341 H           1 MOL       0.0667
     43 H5         -7.5905   20.1765   17.7646 H           1 MOL       0.2102
     44 H6         -4.3387   20.8498   16.6766 H           1 MOL       0.0749
     45 H7         -8.9115   21.8801    8.1392 H           1 MOL       0.0446
     46 H8         -9.1737   20.4909    9.2058 H           1 MOL       0.0446
     47 H9         -7.6549   20.6388    8.2985 H           1 MOL       0.0446
     48 H10        -6.2396   19.0054   12.9840 H           1 MOL       0.1373
     49 H11        -3.4522   18.7524   16.8750 H           1 MOL       0.0477
     50 H12        -5.0888   17.8558   14.6743 H           1 MOL       0.0470
     51 H13        -4.0022   15.8548   14.6666 H           1 MOL       0.0643
     52 H14        -3.6515   16.1324   16.3640 H           1 MOL       0.0643
     53 H15        -1.6485   15.9393   15.3451 H           1 MOL       0.1864
     54 H16         0.1511   19.7388   14.6194 H           1 MOL       0.0555
     55 H17         3.7846   17.6477   14.2883 H           1 MOL       0.0543
     56 H18         2.0224   20.8123   12.6761 H           1 MOL       0.0601
     57 H19         3.1043   22.9588   12.8057 H           1 MOL       0.0602
     58 H20         3.7064   19.7493   16.4036 H           1 MOL       0.0601
     59 H21         4.8388   21.8829   16.4879 H           1 MOL       0.0602
     60 H22         0.0200   14.8229   14.9949 H           1 MOL       0.2479
     61 H23         3.2035   15.0686   14.9186 H           1 MOL       0.2443
     62 H24        -7.4421   25.0048   11.0859 H           1 MOL       0.1019
@<TRIPOS>BOND
     1     1     2   1
     2    10     1   1
     3     1    13   1
     4     2     3   1
     5     2     4   1
     6     4     5   1
     7     6     4   1
     8    13     6   1
     9     6    14   1
    10    35     7   1
    11     8     9   2
    12    12     8   1
    13    10     9   1
    14    11    10   1
    15    12    11  ar
    16    11    38  ar
    17    12    35  ar
    18    14    15   2
    19    15    16   1
    20    16    17   1
    21    17    18  am
    22    18    19   2
    23    18    20   1
    24    20    21  ar
    25    20    31  ar
    26    21    22  ar
    27    22    23  ar
    28    22    24   1
    29    23    33  ar
    30    24    25  ar
    31    24    27  ar
    32    25    26  ar
    33    26    29  ar
    34    27    28  ar
    35    28    29  ar
    36    29    30   1
    37    31    32   1
    38    31    33  ar
    39    33    34   1
    40    35    36  ar
    41    36    37  ar
    42    37    38  ar
    43     1    39   1
    44     2    40   1
    45     3    41   1
    46     4    42   1
    47     5    43   1
    48     6    44   1
    49     7    45   1
    50     7    46   1
    51     7    47   1
    52     9    48   1
    53    14    49   1
    54    15    50   1
    55    16    51   1
    56    16    52   1
    57    17    53   1
    58    21    54   1
    59    23    55   1
    60    25    56   1
    61    26    57   1
    62    27    58   1
    63    28    59   1
    64    32    60   1
    65    34    61   1
    66    37    62   1
@<TRIPOS>SUBSTRUCTURE
     1  MOL      1

