@<TRIPOS>MOLECULE
3nw9_ligand_008
    62    66
SMALL
GAST_HUCK
****
This file was generated by PARSER (from files_GN.cpp)

@<TRIPOS>ATOM
      1 C1         -7.0417   18.8826   17.2327 C.3         1 MOL       0.2034
      2 C2         -7.5969   20.2689   17.6335 C.3         1 MOL       0.1402
      3 O3         -8.8686   20.4920   17.0173 O.3         1 MOL      -0.3834
      4 C4         -6.5412   21.2415   17.0789 C.3         1 MOL       0.1189
      5 O5         -7.1220   22.4565   16.5995 O.3         1 MOL      -0.3846
      6 C6         -5.8737   20.4367   15.9341 C.3         1 MOL       0.1082
      7 C7         -2.9828   15.1195   19.8467 C.3         1 MOL      -0.0106
      8 N8         -4.7312   17.6687   19.7667 N.2         1 MOL      -0.2933
      9 C9         -5.6184   18.5718   19.3067 C.2         1 MOL       0.1151
     10 N10        -6.0798   18.2243   18.0836 N.pl3       1 MOL      -0.1882
     11 C11        -5.4627   17.0696   17.7692 C.ar        1 MOL       0.1683
     12 C12        -4.6251   16.7248   18.8245 C.ar        1 MOL       0.0876
     13 O13        -6.4305   19.1135   15.9536 O.3         1 MOL      -0.3296
     14 C14        -4.4169   20.3741   16.0260 C.2         1 MOL      -0.0658
     15 C15        -3.5933   21.0439   15.2054 C.2         1 MOL      -0.0744
     16 C16        -2.1474   20.8886   15.1961 C.3         1 MOL       0.0471
     17 N17        -1.6842   19.5385   15.0713 N.am        1 MOL      -0.2802
     18 C18        -2.0435   18.6517   14.1493 C.2         1 MOL       0.1986
     19 O19        -2.9497   18.8849   13.3523 O.2         1 MOL      -0.3908
     20 C20        -1.4190   17.4183   14.0994 C.ar        1 MOL       0.0720
     21 C21        -2.1954   16.2355   14.0496 C.ar        1 MOL      -0.0533
     22 C22        -1.5878   14.9599   14.0162 C.ar        1 MOL      -0.0339
     23 C23        -0.1770   14.8749   14.0279 C.ar        1 MOL      -0.0299
     24 C24        -2.3825   13.7883   13.9524 C.ar        1 MOL      -0.0299
     25 C25        -3.2684   13.5827   12.8659 C.ar        1 MOL      -0.0581
     26 C26        -4.0344   12.4055   12.7844 C.ar        1 MOL      -0.0288
     27 C27        -2.2916   12.7979   14.9586 C.ar        1 MOL      -0.0581
     28 C28        -3.0723   11.6292   14.8805 C.ar        1 MOL      -0.0288
     29 C29        -3.9411   11.4308   13.7926 C.ar        1 MOL       0.1316
     30 F30        -4.6570   10.3441   13.7196 F           1 MOL      -0.1840
     31 C31        -0.0043   17.3045   14.0868 C.ar        1 MOL       0.1393
     32 O32         0.7911   18.4004   13.9919 O.3         1 MOL      -0.3302
     33 C33         0.6104   16.0365   14.0555 C.ar        1 MOL       0.1232
     34 O34         1.9592   15.9165   13.9931 O.3         1 MOL      -0.3356
     35 C35        -3.8724   15.5376   18.7486 C.ar        1 MOL       0.0444
     36 N38        -3.9977   14.7792   17.6217 N.ar        1 MOL      -0.2825
     37 C39        -4.8201   15.1345   16.5945 C.ar        1 MOL       0.0619
     38 N40        -5.5536   16.2772   16.6714 N.ar        1 MOL      -0.2608
     39 H1         -7.8843   18.1927   17.1140 H           1 MOL       0.0998
     40 H2         -7.7296   20.3711   18.7105 H           1 MOL       0.0678
     41 H3         -9.4759   19.8392   17.4250 H           1 MOL       0.2101
     42 H4         -5.8288   21.5000   17.8690 H           1 MOL       0.0667
     43 H5         -6.3742   22.9562   16.2088 H           1 MOL       0.2102
     44 H6         -6.1815   20.8646   14.9729 H           1 MOL       0.0749
     45 H7         -2.4896   14.1724   19.6191 H           1 MOL       0.0446
     46 H8         -3.5605   14.9971   20.7651 H           1 MOL       0.0446
     47 H9         -2.2169   15.8802   20.0063 H           1 MOL       0.0446
     48 H10        -5.8944   19.3993   19.8338 H           1 MOL       0.1373
     49 H11        -4.0183   19.7752   16.7138 H           1 MOL       0.0477
     50 H12        -3.9844   21.6407   14.5106 H           1 MOL       0.0470
     51 H13        -1.7404   21.3109   16.1174 H           1 MOL       0.0643
     52 H14        -1.7254   21.4583   14.3656 H           1 MOL       0.0643
     53 H15        -0.9925   19.2592   15.6944 H           1 MOL       0.1864
     54 H16        -3.2187   16.3052   14.0648 H           1 MOL       0.0555
     55 H17         0.2831   13.9615   13.9700 H           1 MOL       0.0543
     56 H18        -3.3421   14.2783   12.1170 H           1 MOL       0.0601
     57 H19        -4.6551   12.2628   11.9857 H           1 MOL       0.0602
     58 H20        -1.6648   12.9262   15.7600 H           1 MOL       0.0601
     59 H21        -3.0013   10.9271   15.6189 H           1 MOL       0.0602
     60 H22         0.5890   18.7629   13.1025 H           1 MOL       0.2479
     61 H23         2.2837   16.2756   14.8452 H           1 MOL       0.2443
     62 H24        -4.8873   14.5427   15.7660 H           1 MOL       0.1019
@<TRIPOS>BOND
     1     1     2   1
     2    10     1   1
     3     1    13   1
     4     2     3   1
     5     2     4   1
     6     4     5   1
     7     6     4   1
     8    13     6   1
     9     6    14   1
    10    35     7   1
    11     8     9   2
    12    12     8   1
    13    10     9   1
    14    11    10   1
    15    12    11  ar
    16    11    38  ar
    17    12    35  ar
    18    14    15   2
    19    15    16   1
    20    16    17   1
    21    17    18  am
    22    18    19   2
    23    18    20   1
    24    20    21  ar
    25    20    31  ar
    26    21    22  ar
    27    22    23  ar
    28    22    24   1
    29    23    33  ar
    30    24    25  ar
    31    24    27  ar
    32    25    26  ar
    33    26    29  ar
    34    27    28  ar
    35    28    29  ar
    36    29    30   1
    37    31    32   1
    38    31    33  ar
    39    33    34   1
    40    35    36  ar
    41    36    37  ar
    42    37    38  ar
    43     1    39   1
    44     2    40   1
    45     3    41   1
    46     4    42   1
    47     5    43   1
    48     6    44   1
    49     7    45   1
    50     7    46   1
    51     7    47   1
    52     9    48   1
    53    14    49   1
    54    15    50   1
    55    16    51   1
    56    16    52   1
    57    17    53   1
    58    21    54   1
    59    23    55   1
    60    25    56   1
    61    26    57   1
    62    27    58   1
    63    28    59   1
    64    32    60   1
    65    34    61   1
    66    37    62   1
@<TRIPOS>SUBSTRUCTURE
     1  MOL      1

