@<TRIPOS>MOLECULE
3nw9_ligand_043
    62    66
SMALL
GAST_HUCK
****
This file was generated by PARSER (from files_GN.cpp)

@<TRIPOS>ATOM
      1 C1         -4.9049   19.3462   13.5445 C.3         1 MOL       0.2034
      2 C2         -3.3699   19.2425   13.6409 C.3         1 MOL       0.1402
      3 O3         -2.7943   19.1615   12.3438 O.3         1 MOL      -0.3834
      4 C4         -3.1631   17.9895   14.5025 C.3         1 MOL       0.1189
      5 O5         -2.9672   16.8168   13.7096 O.3         1 MOL      -0.3846
      6 C6         -4.4785   17.9094   15.3241 C.3         1 MOL       0.1082
      7 C7         -6.8408   24.6134   11.1149 C.3         1 MOL      -0.0106
      8 N8         -5.6333   22.8801   13.3645 N.2         1 MOL      -0.2933
      9 C9         -5.1712   21.7854   13.9959 C.2         1 MOL       0.1151
     10 N10        -5.3515   20.6760   13.2415 N.pl3       1 MOL      -0.1882
     11 C11        -5.9750   21.0760   12.1193 C.ar        1 MOL       0.1683
     12 C12        -6.1332   22.4569   12.1954 C.ar        1 MOL       0.0876
     13 O13        -5.4003   18.8911   14.8092 O.3         1 MOL      -0.3296
     14 C14        -4.2882   18.2056   16.7389 C.2         1 MOL      -0.0658
     15 C15        -4.3343   17.2793   17.7052 C.2         1 MOL      -0.0744
     16 C16        -4.4721   17.6366   19.1103 C.3         1 MOL       0.0471
     17 N17        -5.6318   18.4116   19.4906 N.am        1 MOL      -0.2802
     18 C18        -6.8222   18.5326   18.8930 C.2         1 MOL       0.1986
     19 O19        -7.0697   17.9478   17.8438 O.2         1 MOL      -0.3908
     20 C20        -7.7921   19.3808   19.4074 C.ar        1 MOL       0.0720
     21 C21        -8.5309   20.2204   18.5321 C.ar        1 MOL      -0.0533
     22 C22        -9.4980   21.1265   19.0212 C.ar        1 MOL      -0.0339
     23 C23        -9.7627   21.1547   20.4054 C.ar        1 MOL      -0.0299
     24 C24       -10.2038   21.9924   18.1416 C.ar        1 MOL      -0.0299
     25 C25       -10.9714   21.4636   17.0788 C.ar        1 MOL      -0.0581
     26 C26       -11.6860   22.3185   16.2162 C.ar        1 MOL      -0.0288
     27 C27       -10.1611   23.3942   18.3202 C.ar        1 MOL      -0.0581
     28 C28       -10.8691   24.2505   17.4498 C.ar        1 MOL      -0.0288
     29 C29       -11.6349   23.7135   16.4001 C.ar        1 MOL       0.1316
     30 F30       -12.2981   24.5069   15.6020 F           1 MOL      -0.1840
     31 C31        -8.0899   19.4190   20.7917 C.ar        1 MOL       0.1393
     32 O32        -7.4714   18.5845   21.6666 O.3         1 MOL      -0.3302
     33 C33        -9.0841   20.2879   21.2840 C.ar        1 MOL       0.1232
     34 O34        -9.4269   20.2964   22.5954 O.3         1 MOL      -0.3356
     35 C35        -6.7111   23.1475   11.1114 C.ar        1 MOL       0.0444
     36 N38        -7.1294   22.4088   10.0432 N.ar        1 MOL      -0.2825
     37 C39        -6.9944   21.0533    9.9988 C.ar        1 MOL       0.0619
     38 N40        -6.4044   20.3875   11.0301 N.ar        1 MOL      -0.2608
     39 H1         -5.2631   18.6398   12.7873 H           1 MOL       0.0998
     40 H2         -2.9491   20.1082   14.1637 H           1 MOL       0.0678
     41 H3         -1.8502   18.9432   12.4700 H           1 MOL       0.2101
     42 H4         -2.2837   18.1040   15.1411 H           1 MOL       0.0667
     43 H5         -3.7397   16.7604   13.1145 H           1 MOL       0.2102
     44 H6         -4.9387   16.9226   15.1897 H           1 MOL       0.0749
     45 H7         -7.1659   24.9851   10.1452 H           1 MOL       0.0446
     46 H8         -5.8793   25.0739   11.3589 H           1 MOL       0.0446
     47 H9         -7.5751   24.9085   11.8616 H           1 MOL       0.0446
     48 H10        -4.7190   21.8134   14.9136 H           1 MOL       0.1373
     49 H11        -4.2508   19.1631   16.9996 H           1 MOL       0.0477
     50 H12        -4.3357   16.3092   17.4573 H           1 MOL       0.0470
     51 H13        -3.5893   18.2103   19.3971 H           1 MOL       0.0643
     52 H14        -4.4687   16.7294   19.7162 H           1 MOL       0.0643
     53 H15        -5.5097   18.9223   20.3086 H           1 MOL       0.1864
     54 H16        -8.3281   20.2064   17.5288 H           1 MOL       0.0555
     55 H17       -10.4786   21.7842   20.7847 H           1 MOL       0.0543
     56 H18       -11.0319   20.4539   16.9307 H           1 MOL       0.0601
     57 H19       -12.2454   21.9200   15.4564 H           1 MOL       0.0602
     58 H20        -9.6055   23.8085   19.0727 H           1 MOL       0.0601
     59 H21       -10.8289   25.2640   17.5889 H           1 MOL       0.0602
     60 H22        -6.7846   19.1334   22.0981 H           1 MOL       0.2479
     61 H23        -9.5651   19.3523   22.8308 H           1 MOL       0.2443
     62 H24        -7.3286   20.5348    9.1857 H           1 MOL       0.1019
@<TRIPOS>BOND
     1     1     2   1
     2    10     1   1
     3     1    13   1
     4     2     3   1
     5     2     4   1
     6     4     5   1
     7     6     4   1
     8    13     6   1
     9     6    14   1
    10    35     7   1
    11     8     9   2
    12    12     8   1
    13    10     9   1
    14    11    10   1
    15    12    11  ar
    16    11    38  ar
    17    12    35  ar
    18    14    15   2
    19    15    16   1
    20    16    17   1
    21    17    18  am
    22    18    19   2
    23    18    20   1
    24    20    21  ar
    25    20    31  ar
    26    21    22  ar
    27    22    23  ar
    28    22    24   1
    29    23    33  ar
    30    24    25  ar
    31    24    27  ar
    32    25    26  ar
    33    26    29  ar
    34    27    28  ar
    35    28    29  ar
    36    29    30   1
    37    31    32   1
    38    31    33  ar
    39    33    34   1
    40    35    36  ar
    41    36    37  ar
    42    37    38  ar
    43     1    39   1
    44     2    40   1
    45     3    41   1
    46     4    42   1
    47     5    43   1
    48     6    44   1
    49     7    45   1
    50     7    46   1
    51     7    47   1
    52     9    48   1
    53    14    49   1
    54    15    50   1
    55    16    51   1
    56    16    52   1
    57    17    53   1
    58    21    54   1
    59    23    55   1
    60    25    56   1
    61    26    57   1
    62    27    58   1
    63    28    59   1
    64    32    60   1
    65    34    61   1
    66    37    62   1
@<TRIPOS>SUBSTRUCTURE
     1  MOL      1

