@<TRIPOS>MOLECULE
3nw9_ligand_032
    62    66
SMALL
GAST_HUCK
****
This file was generated by PARSER (from files_GN.cpp)

@<TRIPOS>ATOM
      1 C1         -4.9281   21.1192   13.8788 C.3         1 MOL       0.2034
      2 C2         -5.5529   20.6709   15.2147 C.3         1 MOL       0.1402
      3 O3         -6.4102   21.6577   15.7909 O.3         1 MOL      -0.3834
      4 C4         -4.3129   20.3370   16.0632 C.3         1 MOL       0.1189
      5 O5         -3.8666   21.4538   16.8314 O.3         1 MOL      -0.3846
      6 C6         -3.2548   19.9347   15.0000 C.3         1 MOL       0.1082
      7 C7         -8.6955   21.5978    9.0629 C.3         1 MOL      -0.0106
      8 N8         -7.0746   20.0369   11.1860 N.2         1 MOL      -0.2933
      9 C9         -6.2679   19.8238   12.2398 C.2         1 MOL       0.1151
     10 N10        -5.8249   20.9853   12.7665 N.pl3       1 MOL      -0.1882
     11 C11        -6.3797   21.9678   12.0324 C.ar        1 MOL       0.1683
     12 C12        -7.1617   21.3662   11.0467 C.ar        1 MOL       0.0876
     13 O13        -3.7712   20.2879   13.7018 O.3         1 MOL      -0.3296
     14 C14        -2.9028   18.5205   15.0271 C.2         1 MOL      -0.0658
     15 C15        -3.7172   17.5435   14.5813 C.2         1 MOL      -0.0744
     16 C16        -3.3713   16.1388   14.5589 C.3         1 MOL       0.0471
     17 N17        -4.1447   15.4211   15.5267 N.am        1 MOL      -0.2802
     18 C18        -5.0660   14.4948   15.2857 C.2         1 MOL       0.1986
     19 O19        -5.3096   14.1566   14.1325 O.2         1 MOL      -0.3908
     20 C20        -5.7503   13.8607   16.3297 C.ar        1 MOL       0.0720
     21 C21        -5.6788   12.4501   16.4606 C.ar        1 MOL      -0.0533
     22 C22        -6.3697   11.7567   17.4806 C.ar        1 MOL      -0.0339
     23 C23        -7.1812   12.4853   18.3722 C.ar        1 MOL      -0.0299
     24 C24        -6.2425   10.3505   17.6056 C.ar        1 MOL      -0.0299
     25 C25        -7.3433    9.4956   17.3584 C.ar        1 MOL      -0.0581
     26 C26        -7.2086    8.0987   17.4813 C.ar        1 MOL      -0.0288
     27 C27        -5.0055    9.7742   17.9802 C.ar        1 MOL      -0.0581
     28 C28        -4.8737    8.3783   18.1155 C.ar        1 MOL      -0.0288
     29 C29        -5.9755    7.5392   17.8656 C.ar        1 MOL       0.1316
     30 F30        -5.8511    6.2458   17.9812 F           1 MOL      -0.1840
     31 C31        -6.5411   14.5769   17.2735 C.ar        1 MOL       0.1393
     32 O32        -6.6856   15.9285   17.1851 O.3         1 MOL      -0.3302
     33 C33        -7.2638   13.8857   18.2726 C.ar        1 MOL       0.1232
     34 O34        -8.0666   14.5535   19.1400 O.3         1 MOL      -0.3356
     35 C35        -7.8601   22.1775   10.1291 C.ar        1 MOL       0.0444
     36 N38        -7.7398   23.5277   10.2668 N.ar        1 MOL      -0.2825
     37 C39        -6.9765   24.0991   11.2385 C.ar        1 MOL       0.0619
     38 N40        -6.3046   23.3206   12.1278 N.ar        1 MOL      -0.2608
     39 H1         -4.5854   22.1535   13.9731 H           1 MOL       0.0998
     40 H2         -6.1446   19.7581   15.0704 H           1 MOL       0.0678
     41 H3         -5.8516   22.4540   15.9091 H           1 MOL       0.2101
     42 H4         -4.5386   19.5283   16.7661 H           1 MOL       0.0667
     43 H5         -3.8732   22.2273   16.2295 H           1 MOL       0.2102
     44 H6         -2.3412   20.5214   15.1541 H           1 MOL       0.0749
     45 H7         -9.1876   22.3778    8.4791 H           1 MOL       0.0446
     46 H8         -9.4641   20.9588    9.5011 H           1 MOL       0.0446
     47 H9         -8.0746   21.0021    8.3926 H           1 MOL       0.0446
     48 H10        -6.0183   18.8915   12.5776 H           1 MOL       0.1373
     49 H11        -2.0057   18.2708   15.3802 H           1 MOL       0.0477
     50 H12        -4.5905   17.8043   14.1911 H           1 MOL       0.0470
     51 H13        -2.3186   15.9789   14.7999 H           1 MOL       0.0643
     52 H14        -3.5403   15.7780   13.5430 H           1 MOL       0.0643
     53 H15        -3.9425   15.6047   16.4585 H           1 MOL       0.1864
     54 H16        -5.1075   11.9096   15.8061 H           1 MOL       0.0555
     55 H17        -7.7088   11.9992   19.1069 H           1 MOL       0.0543
     56 H18        -8.2473    9.8839   17.0735 H           1 MOL       0.0601
     57 H19        -8.0102    7.4916   17.2888 H           1 MOL       0.0602
     58 H20        -4.1933   10.3685   18.1737 H           1 MOL       0.0601
     59 H21        -3.9751    7.9775   18.3970 H           1 MOL       0.0602
     60 H22        -6.3930   16.2912   18.0502 H           1 MOL       0.2479
     61 H23        -7.4770   14.8168   19.8806 H           1 MOL       0.2443
     62 H24        -6.9158   25.1152   11.3068 H           1 MOL       0.1019
@<TRIPOS>BOND
     1     1     2   1
     2    10     1   1
     3     1    13   1
     4     2     3   1
     5     2     4   1
     6     4     5   1
     7     6     4   1
     8    13     6   1
     9     6    14   1
    10    35     7   1
    11     8     9   2
    12    12     8   1
    13    10     9   1
    14    11    10   1
    15    12    11  ar
    16    11    38  ar
    17    12    35  ar
    18    14    15   2
    19    15    16   1
    20    16    17   1
    21    17    18  am
    22    18    19   2
    23    18    20   1
    24    20    21  ar
    25    20    31  ar
    26    21    22  ar
    27    22    23  ar
    28    22    24   1
    29    23    33  ar
    30    24    25  ar
    31    24    27  ar
    32    25    26  ar
    33    26    29  ar
    34    27    28  ar
    35    28    29  ar
    36    29    30   1
    37    31    32   1
    38    31    33  ar
    39    33    34   1
    40    35    36  ar
    41    36    37  ar
    42    37    38  ar
    43     1    39   1
    44     2    40   1
    45     3    41   1
    46     4    42   1
    47     5    43   1
    48     6    44   1
    49     7    45   1
    50     7    46   1
    51     7    47   1
    52     9    48   1
    53    14    49   1
    54    15    50   1
    55    16    51   1
    56    16    52   1
    57    17    53   1
    58    21    54   1
    59    23    55   1
    60    25    56   1
    61    26    57   1
    62    27    58   1
    63    28    59   1
    64    32    60   1
    65    34    61   1
    66    37    62   1
@<TRIPOS>SUBSTRUCTURE
     1  MOL      1

