@<TRIPOS>MOLECULE
3nw9_ligand_011
    62    66
SMALL
GAST_HUCK
****
This file was generated by PARSER (from files_GN.cpp)

@<TRIPOS>ATOM
      1 C1         -4.5365   21.4132   13.8766 C.3         1 MOL       0.2034
      2 C2         -4.7117   20.6016   15.1806 C.3         1 MOL       0.1402
      3 O3         -5.4908   21.2921   16.1565 O.3         1 MOL      -0.3834
      4 C4         -3.2699   20.3094   15.6239 C.3         1 MOL       0.1189
      5 O5         -2.7806   21.2853   16.5447 O.3         1 MOL      -0.3846
      6 C6         -2.4633   20.3473   14.3042 C.3         1 MOL       0.1082
      7 C7         -8.4019   21.1450    9.1169 C.3         1 MOL      -0.0106
      8 N8         -6.5146   19.9106   11.2569 N.2         1 MOL      -0.2933
      9 C9         -5.6644   19.8606   12.2959 C.2         1 MOL       0.1151
     10 N10        -5.4592   21.0878   12.8246 N.pl3       1 MOL      -0.1882
     11 C11        -6.2194   21.9366   12.1098 C.ar        1 MOL       0.1683
     12 C12        -6.8729   21.1971   11.1226 C.ar        1 MOL       0.0876
     13 O13        -3.1971   21.2018   13.4070 O.3         1 MOL      -0.3296
     14 C14        -2.2291   19.0545   13.6644 C.2         1 MOL      -0.0658
     15 C15        -1.4062   18.1157   14.1597 C.2         1 MOL      -0.0744
     16 C16        -1.0619   16.8936   13.4494 C.3         1 MOL       0.0471
     17 N17        -1.2920   15.7213   14.2355 N.am        1 MOL      -0.2802
     18 C18        -2.3962   14.9881   14.2574 C.2         1 MOL       0.1986
     19 O19        -3.3935   15.2876   13.6161 O.2         1 MOL      -0.3908
     20 C20        -2.4580   13.9114   15.1131 C.ar        1 MOL       0.0720
     21 C21        -3.2039   14.0265   16.3067 C.ar        1 MOL      -0.0533
     22 C22        -3.2366   12.9695   17.2436 C.ar        1 MOL      -0.0339
     23 C23        -2.5441   11.7739   16.9610 C.ar        1 MOL      -0.0299
     24 C24        -3.8848   13.1514   18.4850 C.ar        1 MOL      -0.0299
     25 C25        -3.3765   14.0900   19.4126 C.ar        1 MOL      -0.0581
     26 C26        -4.0118   14.2796   20.6537 C.ar        1 MOL      -0.0288
     27 C27        -5.0321   12.4004   18.8209 C.ar        1 MOL      -0.0581
     28 C28        -5.6768   12.6055   20.0558 C.ar        1 MOL      -0.0288
     29 C29        -5.1672   13.5438   20.9731 C.ar        1 MOL       0.1316
     30 F30        -5.7635   13.7317   22.1159 F           1 MOL      -0.1840
     31 C31        -1.7163   12.7323   14.8678 C.ar        1 MOL       0.1393
     32 O32        -0.9794   12.6056   13.7349 O.3         1 MOL      -0.3302
     33 C33        -1.7748   11.6615   15.7879 C.ar        1 MOL       0.1232
     34 O34        -1.0885   10.5086   15.5795 O.3         1 MOL      -0.3356
     35 C35        -7.7081   21.8625   10.2011 C.ar        1 MOL       0.0444
     36 N38        -7.8329   23.2142   10.3258 N.ar        1 MOL      -0.2825
     37 C39        -7.1898   23.9178   11.2981 C.ar        1 MOL       0.0619
     38 N40        -6.3819   23.2821   12.1885 N.ar        1 MOL      -0.2608
     39 H1         -4.5987   22.4804   14.1139 H           1 MOL       0.0998
     40 H2         -5.2155   19.6521   14.9895 H           1 MOL       0.0678
     41 H3         -5.0632   22.1680   16.2747 H           1 MOL       0.2101
     42 H4         -3.2109   19.3383   16.1211 H           1 MOL       0.0667
     43 H5         -2.8193   22.1339   16.0637 H           1 MOL       0.2102
     44 H6         -1.4895   20.8226   14.4707 H           1 MOL       0.0749
     45 H7         -9.0196   21.8239    8.5287 H           1 MOL       0.0446
     46 H8         -9.0437   20.3641    9.5314 H           1 MOL       0.0446
     47 H9         -7.6707   20.6828    8.4513 H           1 MOL       0.0446
     48 H10        -5.2269   18.9935   12.6129 H           1 MOL       0.1373
     49 H11        -2.6516   18.8894   12.7817 H           1 MOL       0.0477
     50 H12        -0.9487   18.2885   15.0264 H           1 MOL       0.0470
     51 H13         0.0094   16.9294   13.2275 H           1 MOL       0.0643
     52 H14        -1.5697   16.8214   12.4840 H           1 MOL       0.0643
     53 H15        -0.5675   15.4356   14.8151 H           1 MOL       0.1864
     54 H16        -3.7089   14.8978   16.5031 H           1 MOL       0.0555
     55 H17        -2.5636   10.9975   17.6300 H           1 MOL       0.0543
     56 H18        -2.5356   14.6319   19.2004 H           1 MOL       0.0601
     57 H19        -3.6323   14.9612   21.3172 H           1 MOL       0.0602
     58 H20        -5.4215   11.7231   18.1613 H           1 MOL       0.0601
     59 H21        -6.5214   12.0716   20.2813 H           1 MOL       0.0602
     60 H22        -0.0814   12.3479   14.0417 H           1 MOL       0.2479
     61 H23        -0.1441   10.7677   15.5861 H           1 MOL       0.2443
     62 H24        -7.3118   24.9274   11.3530 H           1 MOL       0.1019
@<TRIPOS>BOND
     1     1     2   1
     2    10     1   1
     3     1    13   1
     4     2     3   1
     5     2     4   1
     6     4     5   1
     7     6     4   1
     8    13     6   1
     9     6    14   1
    10    35     7   1
    11     8     9   2
    12    12     8   1
    13    10     9   1
    14    11    10   1
    15    12    11  ar
    16    11    38  ar
    17    12    35  ar
    18    14    15   2
    19    15    16   1
    20    16    17   1
    21    17    18  am
    22    18    19   2
    23    18    20   1
    24    20    21  ar
    25    20    31  ar
    26    21    22  ar
    27    22    23  ar
    28    22    24   1
    29    23    33  ar
    30    24    25  ar
    31    24    27  ar
    32    25    26  ar
    33    26    29  ar
    34    27    28  ar
    35    28    29  ar
    36    29    30   1
    37    31    32   1
    38    31    33  ar
    39    33    34   1
    40    35    36  ar
    41    36    37  ar
    42    37    38  ar
    43     1    39   1
    44     2    40   1
    45     3    41   1
    46     4    42   1
    47     5    43   1
    48     6    44   1
    49     7    45   1
    50     7    46   1
    51     7    47   1
    52     9    48   1
    53    14    49   1
    54    15    50   1
    55    16    51   1
    56    16    52   1
    57    17    53   1
    58    21    54   1
    59    23    55   1
    60    25    56   1
    61    26    57   1
    62    27    58   1
    63    28    59   1
    64    32    60   1
    65    34    61   1
    66    37    62   1
@<TRIPOS>SUBSTRUCTURE
     1  MOL      1

