@<TRIPOS>MOLECULE
3nw9_ligand_005
    62    66
SMALL
GAST_HUCK
****
This file was generated by PARSER (from files_GN.cpp)

@<TRIPOS>ATOM
      1 C1         -4.1996   20.8190   15.0488 C.3         1 MOL       0.2034
      2 C2         -2.9188   20.3375   15.7739 C.3         1 MOL       0.1402
      3 O3         -2.4189   21.2901   16.7099 O.3         1 MOL      -0.3834
      4 C4         -1.9645   20.0543   14.6102 C.3         1 MOL       0.1189
      5 O5         -1.2651   21.2293   14.1936 O.3         1 MOL      -0.3846
      6 C6         -2.9349   19.5528   13.5143 C.3         1 MOL       0.1082
      7 C7         -9.2728   19.6438   18.3357 C.3         1 MOL      -0.0106
      8 N8         -7.6923   20.7997   15.9343 N.2         1 MOL      -0.2933
      9 C9         -6.6374   21.1012   15.1579 C.2         1 MOL       0.1151
     10 N10        -5.4767   20.6537   15.6933 N.pl3       1 MOL      -0.1882
     11 C11        -5.8135   20.0579   16.8560 C.ar        1 MOL       0.1683
     12 C12        -7.1971   20.1472   16.9930 C.ar        1 MOL       0.0876
     13 O13        -4.2189   20.1449   13.7776 O.3         1 MOL      -0.3296
     14 C14        -3.0267   18.0992   13.4280 C.2         1 MOL      -0.0658
     15 C15        -3.7596   17.3199   14.2478 C.2         1 MOL      -0.0744
     16 C16        -3.8359   15.8800   14.0960 C.3         1 MOL       0.0471
     17 N17        -2.5758   15.2801   14.3862 N.am        1 MOL      -0.2802
     18 C18        -2.1020   14.1463   13.8817 C.2         1 MOL       0.1986
     19 O19        -2.7986   13.4546   13.1451 O.2         1 MOL      -0.3908
     20 C20        -0.8159   13.7315   14.2042 C.ar        1 MOL       0.0720
     21 C21        -0.6038   12.4332   14.7275 C.ar        1 MOL      -0.0533
     22 C22         0.6858   11.9841   15.0963 C.ar        1 MOL      -0.0339
     23 C23         1.7810   12.8550   14.9163 C.ar        1 MOL      -0.0299
     24 C24         0.8759   10.6883   15.6488 C.ar        1 MOL      -0.0299
     25 C25         0.0863   10.2440   16.7359 C.ar        1 MOL      -0.0581
     26 C26         0.2849    8.9683   17.2937 C.ar        1 MOL      -0.0288
     27 C27         1.8722    9.8227   15.1362 C.ar        1 MOL      -0.0581
     28 C28         2.0734    8.5485   15.6961 C.ar        1 MOL      -0.0288
     29 C29         1.2786    8.1195   16.7744 C.ar        1 MOL       0.1316
     30 F30         1.4622    6.9346   17.2911 F           1 MOL      -0.1840
     31 C31         0.3095   14.5789   14.0277 C.ar        1 MOL       0.1393
     32 O32         0.1897   15.7949   13.4405 O.3         1 MOL      -0.3302
     33 C33         1.5997   14.1410   14.3824 C.ar        1 MOL       0.1232
     34 O34         2.6630   14.9549   14.1663 O.3         1 MOL      -0.3356
     35 C35        -7.8171   19.5879   18.1272 C.ar        1 MOL       0.0444
     36 N38        -7.0184   18.9789   19.0489 N.ar        1 MOL      -0.2825
     37 C39        -5.6697   18.9015   18.9068 C.ar        1 MOL       0.0619
     38 N40        -5.0738   19.4416   17.8121 N.ar        1 MOL      -0.2608
     39 H1         -4.0817   21.8867   14.8354 H           1 MOL       0.0998
     40 H2         -3.0817   19.3920   16.2933 H           1 MOL       0.0678
     41 H3         -2.5254   22.1598   16.2674 H           1 MOL       0.2101
     42 H4         -1.2171   19.3048   14.8911 H           1 MOL       0.0667
     43 H5         -1.8983   21.9756   14.2801 H           1 MOL       0.2102
     44 H6         -2.6001   19.9232   12.5410 H           1 MOL       0.0749
     45 H7         -9.5581   19.1422   19.2639 H           1 MOL       0.0446
     46 H8         -9.7849   19.1504   17.5081 H           1 MOL       0.0446
     47 H9         -9.5981   20.6840   18.3920 H           1 MOL       0.0446
     48 H10        -6.7172   21.6028   14.2689 H           1 MOL       0.1373
     49 H11        -2.4959   17.6577   12.7124 H           1 MOL       0.0477
     50 H12        -4.2971   17.7398   14.9703 H           1 MOL       0.0470
     51 H13        -4.1463   15.6552   13.0714 H           1 MOL       0.0643
     52 H14        -4.5884   15.4685   14.7752 H           1 MOL       0.0643
     53 H15        -1.9941   15.7482   15.0076 H           1 MOL       0.1864
     54 H16        -1.4041   11.8058   14.8526 H           1 MOL       0.0555
     55 H17         2.7248   12.5545   15.1770 H           1 MOL       0.0543
     56 H18        -0.6297   10.8536   17.1408 H           1 MOL       0.0601
     57 H19        -0.2943    8.6620   18.0788 H           1 MOL       0.0602
     58 H20         2.4518   10.1103   14.3424 H           1 MOL       0.0601
     59 H21         2.7977    7.9358   15.3140 H           1 MOL       0.0602
     60 H22         0.2301   16.4426   14.1787 H           1 MOL       0.2479
     61 H23         3.2629   14.8173   14.9291 H           1 MOL       0.2443
     62 H24        -5.1036   18.4403   19.6175 H           1 MOL       0.1019
@<TRIPOS>BOND
     1     1     2   1
     2    10     1   1
     3     1    13   1
     4     2     3   1
     5     2     4   1
     6     4     5   1
     7     6     4   1
     8    13     6   1
     9     6    14   1
    10    35     7   1
    11     8     9   2
    12    12     8   1
    13    10     9   1
    14    11    10   1
    15    12    11  ar
    16    11    38  ar
    17    12    35  ar
    18    14    15   2
    19    15    16   1
    20    16    17   1
    21    17    18  am
    22    18    19   2
    23    18    20   1
    24    20    21  ar
    25    20    31  ar
    26    21    22  ar
    27    22    23  ar
    28    22    24   1
    29    23    33  ar
    30    24    25  ar
    31    24    27  ar
    32    25    26  ar
    33    26    29  ar
    34    27    28  ar
    35    28    29  ar
    36    29    30   1
    37    31    32   1
    38    31    33  ar
    39    33    34   1
    40    35    36  ar
    41    36    37  ar
    42    37    38  ar
    43     1    39   1
    44     2    40   1
    45     3    41   1
    46     4    42   1
    47     5    43   1
    48     6    44   1
    49     7    45   1
    50     7    46   1
    51     7    47   1
    52     9    48   1
    53    14    49   1
    54    15    50   1
    55    16    51   1
    56    16    52   1
    57    17    53   1
    58    21    54   1
    59    23    55   1
    60    25    56   1
    61    26    57   1
    62    27    58   1
    63    28    59   1
    64    32    60   1
    65    34    61   1
    66    37    62   1
@<TRIPOS>SUBSTRUCTURE
     1  MOL      1

