@<TRIPOS>MOLECULE
3nw9_ligand_038
    62    66
SMALL
GAST_HUCK
****
This file was generated by PARSER (from files_GN.cpp)

@<TRIPOS>ATOM
      1 C1         -3.8507   19.2467   15.6437 C.3         1 MOL       0.2034
      2 C2         -2.4426   18.9032   15.0962 C.3         1 MOL       0.1402
      3 O3         -1.4626   19.9169   15.3147 O.3         1 MOL      -0.3834
      4 C4         -2.6981   18.6668   13.6026 C.3         1 MOL       0.1189
      5 O5         -2.6785   19.8850   12.8561 O.3         1 MOL      -0.3846
      6 C6         -4.1191   18.0606   13.6120 C.3         1 MOL       0.1082
      7 C7         -5.1512   17.0659   21.2655 C.3         1 MOL      -0.0106
      8 N8         -3.6779   18.9304   19.2402 N.2         1 MOL      -0.2933
      9 C9         -3.3438   19.4796   18.0567 C.2         1 MOL       0.1151
     10 N10        -4.0331   18.9174   17.0392 N.pl3       1 MOL      -0.1882
     11 C11        -4.8721   18.0271   17.6094 C.ar        1 MOL       0.1683
     12 C12        -4.6222   18.0143   18.9821 C.ar        1 MOL       0.0876
     13 O13        -4.7902   18.5746   14.7828 O.3         1 MOL      -0.3296
     14 C14        -4.0884   16.6006   13.5501 C.2         1 MOL      -0.0658
     15 C15        -4.2086   15.7886   14.6135 C.2         1 MOL      -0.0744
     16 C16        -4.0867   14.3541   14.5694 C.3         1 MOL       0.0471
     17 N17        -2.7111   14.0371   14.7635 N.am        1 MOL      -0.2802
     18 C18        -1.9733   13.2552   13.9965 C.2         1 MOL       0.1986
     19 O19        -2.4227   12.6289   13.0451 O.2         1 MOL      -0.3908
     20 C20        -0.6565   13.0828   14.3394 C.ar        1 MOL       0.0720
     21 C21        -0.2617   11.8820   14.9681 C.ar        1 MOL      -0.0533
     22 C22         1.0870   11.6720   15.3237 C.ar        1 MOL      -0.0339
     23 C23         2.0441   12.6727   15.0459 C.ar        1 MOL      -0.0299
     24 C24         1.4623   10.4750   15.9675 C.ar        1 MOL      -0.0299
     25 C25         2.1212    9.4543   15.2477 C.ar        1 MOL      -0.0581
     26 C26         2.5015    8.2658   15.8979 C.ar        1 MOL      -0.0288
     27 C27         1.1703   10.2837   17.3365 C.ar        1 MOL      -0.0581
     28 C28         1.5621    9.0989   17.9861 C.ar        1 MOL      -0.0288
     29 C29         2.2303    8.0893   17.2680 C.ar        1 MOL       0.1316
     30 F30         2.5950    6.9909   17.8696 F           1 MOL      -0.1840
     31 C31         0.3024   14.0948   14.1025 C.ar        1 MOL       0.1393
     32 O32        -0.0465   15.2673   13.5161 O.3         1 MOL      -0.3302
     33 C33         1.6507   13.8861   14.4517 C.ar        1 MOL       0.1232
     34 O34         2.5694   14.8515   14.1998 O.3         1 MOL      -0.3356
     35 C35        -5.3459   17.1242   19.8081 C.ar        1 MOL       0.0444
     36 N38        -6.2466   16.2925   19.2147 N.ar        1 MOL      -0.2825
     37 C39        -6.4889   16.3240   17.8758 C.ar        1 MOL       0.0619
     38 N40        -5.8109   17.1992   17.0841 N.ar        1 MOL      -0.2608
     39 H1         -4.0311   20.3197   15.5220 H           1 MOL       0.0998
     40 H2         -2.0838   17.9715   15.5411 H           1 MOL       0.0678
     41 H3         -1.2269   19.8502   16.2636 H           1 MOL       0.2101
     42 H4         -1.9484   17.9880   13.1813 H           1 MOL       0.0667
     43 H5         -1.8828   19.8093   12.2869 H           1 MOL       0.2102
     44 H6         -4.6840   18.4066   12.7425 H           1 MOL       0.0749
     45 H7         -5.7827   16.2950   21.7100 H           1 MOL       0.0446
     46 H8         -5.4148   18.0255   21.7079 H           1 MOL       0.0446
     47 H9         -4.1106   16.8342   21.4917 H           1 MOL       0.0446
     48 H10        -2.6462   20.2187   17.9589 H           1 MOL       0.1373
     49 H11        -3.8984   16.1855   12.6658 H           1 MOL       0.0477
     50 H12        -4.2367   16.1924   15.5086 H           1 MOL       0.0470
     51 H13        -4.5010   13.9634   13.6338 H           1 MOL       0.0643
     52 H14        -4.6572   13.9223   15.3966 H           1 MOL       0.0643
     53 H15        -2.2761   14.4358   15.5380 H           1 MOL       0.1864
     54 H16        -0.9597   11.1603   15.1759 H           1 MOL       0.0555
     55 H17         3.0258   12.5266   15.2934 H           1 MOL       0.0543
     56 H18         2.3246    9.5662   14.2500 H           1 MOL       0.0601
     57 H19         2.9853    7.5354   15.3723 H           1 MOL       0.0602
     58 H20         0.6857   11.0096   17.8723 H           1 MOL       0.0601
     59 H21         1.3588    8.9755   18.9807 H           1 MOL       0.0602
     60 H22        -0.3219   15.8405   14.2634 H           1 MOL       0.2479
     61 H23         2.6186   15.3881   15.0211 H           1 MOL       0.2443
     62 H24        -7.1633   15.6808   17.4565 H           1 MOL       0.1019
@<TRIPOS>BOND
     1     1     2   1
     2    10     1   1
     3     1    13   1
     4     2     3   1
     5     2     4   1
     6     4     5   1
     7     6     4   1
     8    13     6   1
     9     6    14   1
    10    35     7   1
    11     8     9   2
    12    12     8   1
    13    10     9   1
    14    11    10   1
    15    12    11  ar
    16    11    38  ar
    17    12    35  ar
    18    14    15   2
    19    15    16   1
    20    16    17   1
    21    17    18  am
    22    18    19   2
    23    18    20   1
    24    20    21  ar
    25    20    31  ar
    26    21    22  ar
    27    22    23  ar
    28    22    24   1
    29    23    33  ar
    30    24    25  ar
    31    24    27  ar
    32    25    26  ar
    33    26    29  ar
    34    27    28  ar
    35    28    29  ar
    36    29    30   1
    37    31    32   1
    38    31    33  ar
    39    33    34   1
    40    35    36  ar
    41    36    37  ar
    42    37    38  ar
    43     1    39   1
    44     2    40   1
    45     3    41   1
    46     4    42   1
    47     5    43   1
    48     6    44   1
    49     7    45   1
    50     7    46   1
    51     7    47   1
    52     9    48   1
    53    14    49   1
    54    15    50   1
    55    16    51   1
    56    16    52   1
    57    17    53   1
    58    21    54   1
    59    23    55   1
    60    25    56   1
    61    26    57   1
    62    27    58   1
    63    28    59   1
    64    32    60   1
    65    34    61   1
    66    37    62   1
@<TRIPOS>SUBSTRUCTURE
     1  MOL      1

