@<TRIPOS>MOLECULE
3nw9_ligand_080
    62    66
SMALL
GAST_HUCK
****
This file was generated by PARSER (from files_GN.cpp)

@<TRIPOS>ATOM
      1 C1         -4.9690   21.1086   14.0084 C.3         1 MOL       0.2034
      2 C2         -5.8730   21.3672   15.2260 C.3         1 MOL       0.1402
      3 O3         -6.2969   22.7243   15.3111 O.3         1 MOL      -0.3834
      4 C4         -4.9869   20.9161   16.3963 C.3         1 MOL       0.1189
      5 O5         -4.1224   21.9550   16.8582 O.3         1 MOL      -0.3846
      6 C6         -4.1678   19.7633   15.7634 C.3         1 MOL       0.1082
      7 C7         -8.4503   21.3885    8.9730 C.3         1 MOL      -0.0106
      8 N8         -6.7771   19.8942   11.1270 N.2         1 MOL      -0.2933
      9 C9         -6.0285   19.7182   12.2270 C.2         1 MOL       0.1151
     10 N10        -5.7348   20.8998   12.8108 N.pl3       1 MOL      -0.1882
     11 C11        -6.3330   21.8496   12.0711 C.ar        1 MOL       0.1683
     12 C12        -6.9871   21.2157   11.0169 C.ar        1 MOL       0.0876
     13 O13        -4.1427   19.9783   14.3439 O.3         1 MOL      -0.3296
     14 C14        -4.7174   18.4408   16.0415 C.2         1 MOL      -0.0658
     15 C15        -4.6686   17.8739   17.2586 C.2         1 MOL      -0.0744
     16 C16        -5.0371   16.4947   17.5500 C.3         1 MOL       0.0471
     17 N17        -4.9480   15.5303   16.4841 N.am        1 MOL      -0.2802
     18 C18        -3.8884   15.2770   15.7243 C.2         1 MOL       0.1986
     19 O19        -2.9043   15.9963   15.8543 O.2         1 MOL      -0.3908
     20 C20        -3.8791   14.2548   14.7628 C.ar        1 MOL       0.0720
     21 C21        -5.0988   13.7391   14.2425 C.ar        1 MOL      -0.0533
     22 C22        -5.1209   12.7100   13.2721 C.ar        1 MOL      -0.0339
     23 C23        -3.8993   12.1971   12.7927 C.ar        1 MOL      -0.0299
     24 C24        -6.3495   12.1951   12.7753 C.ar        1 MOL      -0.0299
     25 C25        -7.2771   13.0400   12.1264 C.ar        1 MOL      -0.0581
     26 C26        -8.4904   12.5262   11.6306 C.ar        1 MOL      -0.0288
     27 C27        -6.6607   10.8208   12.9221 C.ar        1 MOL      -0.0581
     28 C28        -7.8783   10.3075   12.4391 C.ar        1 MOL      -0.0288
     29 C29        -8.7935   11.1581   11.7896 C.ar        1 MOL       0.1316
     30 F30        -9.9220   10.6826   11.3384 F           1 MOL      -0.1840
     31 C31        -2.6679   13.7129   14.2532 C.ar        1 MOL       0.1393
     32 O32        -1.4407   14.1092   14.6871 O.3         1 MOL      -0.3302
     33 C33        -2.6803   12.6953   13.2765 C.ar        1 MOL       0.1232
     34 O34        -1.5281   12.1687   12.7912 O.3         1 MOL      -0.3356
     35 C35        -7.7106   21.9943   10.0909 C.ar        1 MOL       0.0444
     36 N38        -7.7192   23.3471   10.2746 N.ar        1 MOL      -0.2825
     37 C39        -7.0672   23.9473   11.3095 C.ar        1 MOL       0.0619
     38 N40        -6.3788   23.2009   12.2124 N.ar        1 MOL      -0.2608
     39 H1         -4.2913   21.9575   13.8566 H           1 MOL       0.0998
     40 H2         -6.7593   20.7235   15.1812 H           1 MOL       0.0678
     41 H3         -6.7674   22.7854   16.1666 H           1 MOL       0.2101
     42 H4         -5.6015   20.5985   17.2435 H           1 MOL       0.0667
     43 H5         -3.6089   22.2531   16.0790 H           1 MOL       0.2102
     44 H6         -3.1311   19.7883   16.1173 H           1 MOL       0.0749
     45 H7         -8.9668   22.1503    8.3850 H           1 MOL       0.0446
     46 H8         -9.1934   20.6889    9.3595 H           1 MOL       0.0446
     47 H9         -7.7621   20.8516    8.3183 H           1 MOL       0.0446
     48 H10        -5.7325   18.8016   12.5713 H           1 MOL       0.1373
     49 H11        -5.0934   17.9202   15.2804 H           1 MOL       0.0477
     50 H12        -4.3128   18.4149   18.0137 H           1 MOL       0.0470
     51 H13        -6.0651   16.4927   17.9113 H           1 MOL       0.0643
     52 H14        -4.3999   16.1393   18.3639 H           1 MOL       0.0643
     53 H15        -5.7273   14.9701   16.3582 H           1 MOL       0.1864
     54 H16        -5.9964   14.1037   14.5713 H           1 MOL       0.0555
     55 H17        -3.8846   11.4564   12.0866 H           1 MOL       0.0543
     56 H18        -7.0715   14.0312   11.9960 H           1 MOL       0.0601
     57 H19        -9.1466   13.1439   11.1535 H           1 MOL       0.0602
     58 H20        -6.0107   10.1875   13.3956 H           1 MOL       0.0601
     59 H21        -8.0949    9.3165   12.5587 H           1 MOL       0.0602
     60 H22        -1.5413   14.3637   15.6290 H           1 MOL       0.2479
     61 H23        -0.7919   12.5876   13.2852 H           1 MOL       0.2443
     62 H24        -7.1003   24.9622   11.4142 H           1 MOL       0.1019
@<TRIPOS>BOND
     1     1     2   1
     2    10     1   1
     3     1    13   1
     4     2     3   1
     5     2     4   1
     6     4     5   1
     7     6     4   1
     8    13     6   1
     9     6    14   1
    10    35     7   1
    11     8     9   2
    12    12     8   1
    13    10     9   1
    14    11    10   1
    15    12    11  ar
    16    11    38  ar
    17    12    35  ar
    18    14    15   2
    19    15    16   1
    20    16    17   1
    21    17    18  am
    22    18    19   2
    23    18    20   1
    24    20    21  ar
    25    20    31  ar
    26    21    22  ar
    27    22    23  ar
    28    22    24   1
    29    23    33  ar
    30    24    25  ar
    31    24    27  ar
    32    25    26  ar
    33    26    29  ar
    34    27    28  ar
    35    28    29  ar
    36    29    30   1
    37    31    32   1
    38    31    33  ar
    39    33    34   1
    40    35    36  ar
    41    36    37  ar
    42    37    38  ar
    43     1    39   1
    44     2    40   1
    45     3    41   1
    46     4    42   1
    47     5    43   1
    48     6    44   1
    49     7    45   1
    50     7    46   1
    51     7    47   1
    52     9    48   1
    53    14    49   1
    54    15    50   1
    55    16    51   1
    56    16    52   1
    57    17    53   1
    58    21    54   1
    59    23    55   1
    60    25    56   1
    61    26    57   1
    62    27    58   1
    63    28    59   1
    64    32    60   1
    65    34    61   1
    66    37    62   1
@<TRIPOS>SUBSTRUCTURE
     1  MOL      1

