@<TRIPOS>MOLECULE
3oe5_ligand_036
    50    52
SMALL
GAST_HUCK
****
This file was generated by PARSER (from files_GN.cpp)

@<TRIPOS>ATOM
      1 C1         21.5940  -31.0529   12.0763 C.3         1 MOL       0.1170
      2 C2         22.5954  -32.1219   12.5305 C.3         1 MOL       0.1229
      3 C3         21.6803  -33.3251   12.8101 C.3         1 MOL       0.1499
      4 O4         20.6115  -33.2362   11.8568 O.3         1 MOL      -0.3460
      5 C5         20.5087  -31.8956   11.3561 C.3         1 MOL       0.1063
      6 C6         20.6440  -31.9435    9.8996 C.2         1 MOL      -0.0658
      7 S7         22.5814  -34.8966   12.6770 S.3         1 MOL      -0.0558
      8 O8         21.0363  -30.3545   13.1939 O.3         1 MOL      -0.3847
      9 O9         23.3825  -31.7403   13.6603 O.3         1 MOL      -0.3853
     10 C10        20.3324  -30.9098    9.1006 C.2         1 MOL      -0.0744
     11 C11        21.2205  -35.9296   12.3373 C.ar        1 MOL       0.0383
     12 C12        20.4305  -30.9448    7.6504 C.3         1 MOL       0.0473
     13 N13        21.4352  -30.0138    7.2380 N.am        1 MOL      -0.2765
     14 C14        22.4609  -30.2269    6.4164 C.2         1 MOL       0.2411
     15 C15        23.4511  -29.2519    6.1564 C.ar        1 MOL       0.2482
     16 C16        23.4792  -27.9702    6.7807 C.ar        1 MOL       0.3921
     17 C17        24.5154  -27.0562    6.5087 C.ar        1 MOL       0.3797
     18 C18        25.5316  -27.3888    5.5986 C.ar        1 MOL       0.1691
     19 C19        25.5484  -28.6359    4.9424 C.ar        1 MOL       0.2168
     20 C20        24.5043  -29.5477    5.2440 C.ar        1 MOL       0.1162
     21 N21        26.5357  -28.9458    4.0509 N.2         1 MOL      -0.1404
     22 O22        22.5305  -27.5288    7.6451 O.3         1 MOL      -0.1763
     23 O23        24.5102  -25.8410    7.1135 O.3         1 MOL      -0.1825
     24 O24        22.5504  -31.3283    5.8846 O.2         1 MOL      -0.3823
     25 O25        27.5031  -28.1166    3.7698 O.2         1 MOL      -0.4541
     26 O26        26.5797  -29.9966    3.4645 O.2         1 MOL      -0.4541
     27 C27        20.9287  -36.2880   11.0052 C.ar        1 MOL      -0.0217
     28 C28        19.7870  -37.0639   10.7396 C.ar        1 MOL       0.0039
     29 N29        18.9935  -37.4694   11.7662 N.ar        1 MOL      -0.3066
     30 C30        19.2538  -37.1521   13.0608 C.ar        1 MOL       0.0039
     31 C31        20.3812  -36.3730   13.3786 C.ar        1 MOL      -0.0217
     32 H1         22.0662  -30.3184   11.4180 H           1 MOL       0.0667
     33 H2         23.2743  -32.3456   11.6994 H           1 MOL       0.0659
     34 H3         21.2498  -33.2514   13.8147 H           1 MOL       0.0771
     35 H4         19.5075  -31.5301   11.6084 H           1 MOL       0.0748
     36 H5         20.9504  -32.7946    9.4836 H           1 MOL       0.0477
     37 H6         21.7777  -29.8273   13.5638 H           1 MOL       0.2102
     38 H7         22.7442  -31.5807   14.3877 H           1 MOL       0.2101
     39 H8         19.9984  -30.0699    9.5178 H           1 MOL       0.0470
     40 H9         19.4776  -30.6187    7.2313 H           1 MOL       0.0643
     41 H10        20.6317  -31.9574    7.2834 H           1 MOL       0.0643
     42 H11        21.3506  -29.1294    7.6172 H           1 MOL       0.1867
     43 H12        26.2588  -26.6950    5.4130 H           1 MOL       0.1086
     44 H13        24.5234  -30.4595    4.7761 H           1 MOL       0.1563
     45 H14        22.9641  -27.5309    8.5274 H           1 MOL       0.3540
     46 H15        25.4513  -25.6062    7.2364 H           1 MOL       0.3497
     47 H16        21.5262  -35.9832   10.2328 H           1 MOL       0.0660
     48 H17        19.5524  -37.3326    9.7843 H           1 MOL       0.0803
     49 H18        18.6312  -37.4854   13.7983 H           1 MOL       0.0803
     50 H19        20.5773  -36.1329   14.3534 H           1 MOL       0.0660
@<TRIPOS>BOND
     1     1     2   1
     2     1     5   1
     3     1     8   1
     4     2     3   1
     5     2     9   1
     6     3     4   1
     7     3     7   1
     8     4     5   1
     9     5     6   1
    10     6    10   2
    11     7    11   1
    12    10    12   1
    13    11    27  ar
    14    11    31  ar
    15    12    13   1
    16    13    14  am
    17    14    15   1
    18    14    24   2
    19    15    16  ar
    20    15    20  ar
    21    16    17  ar
    22    16    22   1
    23    17    18  ar
    24    17    23   1
    25    18    19  ar
    26    19    20  ar
    27    19    21   1
    28    21    25   2
    29    21    26   2
    30    27    28  ar
    31    28    29  ar
    32    29    30  ar
    33    30    31  ar
    34     1    32   1
    35     2    33   1
    36     3    34   1
    37     5    35   1
    38     6    36   1
    39     8    37   1
    40     9    38   1
    41    10    39   1
    42    12    40   1
    43    12    41   1
    44    13    42   1
    45    18    43   1
    46    20    44   1
    47    22    45   1
    48    23    46   1
    49    27    47   1
    50    28    48   1
    51    30    49   1
    52    31    50   1
@<TRIPOS>SUBSTRUCTURE
     1  MOL      1

