@<TRIPOS>MOLECULE
3oe5_ligand_015
    50    52
SMALL
GAST_HUCK
****
This file was generated by PARSER (from files_GN.cpp)

@<TRIPOS>ATOM
      1 C1         19.6587  -32.7112   14.4003 C.3         1 MOL       0.1170
      2 C2         20.6249  -33.9173   14.3174 C.3         1 MOL       0.1229
      3 C3         20.7931  -34.1281   12.8044 C.3         1 MOL       0.1499
      4 O4         20.7070  -32.8042   12.2469 O.3         1 MOL      -0.3460
      5 C5         19.6483  -32.1509   12.9545 C.3         1 MOL       0.1063
      6 C6         19.8823  -30.7186   12.8289 C.2         1 MOL      -0.0658
      7 S7         22.2903  -34.9652   12.1786 S.3         1 MOL      -0.0558
      8 O8         18.3562  -33.1269   14.8151 O.3         1 MOL      -0.3847
      9 O9         20.1672  -35.0982   14.9684 O.3         1 MOL      -0.3853
     10 C10        18.9633  -29.8405   12.3648 C.2         1 MOL      -0.0744
     11 C11        23.4806  -34.5982   13.3873 C.ar        1 MOL       0.0383
     12 C12        19.2778  -28.4661   12.0199 C.3         1 MOL       0.0473
     13 N13        20.3036  -28.3476   11.0253 N.am        1 MOL      -0.2765
     14 C14        20.3351  -28.9565    9.8439 C.2         1 MOL       0.2411
     15 C15        21.3172  -28.6807    8.8800 C.ar        1 MOL       0.2482
     16 C16        22.1449  -27.5252    8.9383 C.ar        1 MOL       0.3921
     17 C17        23.0930  -27.2736    7.9278 C.ar        1 MOL       0.3797
     18 C18        23.2483  -28.1682    6.8601 C.ar        1 MOL       0.1691
     19 C19        22.4461  -29.3310    6.7541 C.ar        1 MOL       0.2168
     20 C20        21.4864  -29.5560    7.7731 C.ar        1 MOL       0.1162
     21 N21        22.6065  -30.1990    5.7132 N.2         1 MOL      -0.1404
     22 O22        22.0280  -26.5755    9.9067 O.3         1 MOL      -0.1763
     23 O23        23.8084  -26.1327    7.9358 O.3         1 MOL      -0.1825
     24 O24        19.4830  -29.8031    9.5973 O.2         1 MOL      -0.3823
     25 O25        23.5046  -30.0188    4.7812 O.2         1 MOL      -0.4541
     26 O26        21.9337  -31.1877    5.5824 O.2         1 MOL      -0.4541
     27 C27        23.4269  -35.2534   14.6333 C.ar        1 MOL      -0.0217
     28 C28        24.4017  -34.9455   15.6099 C.ar        1 MOL       0.0039
     29 N29        25.3696  -34.0351   15.3335 N.ar        1 MOL      -0.3066
     30 C30        25.4372  -33.3829   14.1421 C.ar        1 MOL       0.0039
     31 C31        24.4861  -33.6496   13.1389 C.ar        1 MOL      -0.0217
     32 H1         20.0359  -31.9882   15.1313 H           1 MOL       0.0667
     33 H2         21.5710  -33.6149   14.7833 H           1 MOL       0.0659
     34 H3         19.9453  -34.7179   12.4247 H           1 MOL       0.0771
     35 H4         18.7098  -32.4354   12.4618 H           1 MOL       0.0748
     36 H5         20.7900  -30.3767   13.0557 H           1 MOL       0.0477
     37 H6         18.0658  -32.4324   15.4419 H           1 MOL       0.2102
     38 H7         19.3580  -35.3692   14.4764 H           1 MOL       0.2101
     39 H8         18.0473  -30.1698   12.1628 H           1 MOL       0.0470
     40 H9         19.5966  -27.9372   12.9239 H           1 MOL       0.0643
     41 H10        18.3821  -27.9653   11.6509 H           1 MOL       0.0643
     42 H11        21.0247  -27.7268   11.2187 H           1 MOL       0.1867
     43 H12        23.9380  -27.9480    6.1337 H           1 MOL       0.1086
     44 H13        20.8990  -30.3890    7.7066 H           1 MOL       0.1563
     45 H14        21.1204  -26.2228    9.8174 H           1 MOL       0.3540
     46 H15        24.4309  -26.2236    8.6876 H           1 MOL       0.3497
     47 H16        22.7006  -35.9437   14.8465 H           1 MOL       0.0660
     48 H17        24.3850  -35.4164   16.5213 H           1 MOL       0.0803
     49 H18        26.1780  -32.7026   13.9871 H           1 MOL       0.0803
     50 H19        24.5381  -33.1581   12.2495 H           1 MOL       0.0660
@<TRIPOS>BOND
     1     1     2   1
     2     1     5   1
     3     1     8   1
     4     2     3   1
     5     2     9   1
     6     3     4   1
     7     3     7   1
     8     4     5   1
     9     5     6   1
    10     6    10   2
    11     7    11   1
    12    10    12   1
    13    11    27  ar
    14    11    31  ar
    15    12    13   1
    16    13    14  am
    17    14    15   1
    18    14    24   2
    19    15    16  ar
    20    15    20  ar
    21    16    17  ar
    22    16    22   1
    23    17    18  ar
    24    17    23   1
    25    18    19  ar
    26    19    20  ar
    27    19    21   1
    28    21    25   2
    29    21    26   2
    30    27    28  ar
    31    28    29  ar
    32    29    30  ar
    33    30    31  ar
    34     1    32   1
    35     2    33   1
    36     3    34   1
    37     5    35   1
    38     6    36   1
    39     8    37   1
    40     9    38   1
    41    10    39   1
    42    12    40   1
    43    12    41   1
    44    13    42   1
    45    18    43   1
    46    20    44   1
    47    22    45   1
    48    23    46   1
    49    27    47   1
    50    28    48   1
    51    30    49   1
    52    31    50   1
@<TRIPOS>SUBSTRUCTURE
     1  MOL      1

