@<TRIPOS>MOLECULE
3oe5_ligand_038
    50    52
SMALL
GAST_HUCK
****
This file was generated by PARSER (from files_GN.cpp)

@<TRIPOS>ATOM
      1 C1         20.4017  -30.9236   11.9124 C.3         1 MOL       0.1170
      2 C2         19.4015  -31.4821   12.9330 C.3         1 MOL       0.1229
      3 C3         18.2633  -30.4408   12.8550 C.3         1 MOL       0.1499
      4 O4         18.8788  -29.1813   12.5585 O.3         1 MOL      -0.3460
      5 C5         20.2340  -29.4016   12.1287 C.3         1 MOL       0.1063
      6 C6         20.5190  -28.6236   10.9300 C.2         1 MOL      -0.0658
      7 S7         17.1043  -30.8139   11.5042 S.3         1 MOL      -0.0558
      8 O8         21.7387  -31.3753   12.1115 O.3         1 MOL      -0.3847
      9 O9         19.9737  -31.5148   14.2455 O.3         1 MOL      -0.3853
     10 C10        21.7033  -28.0377   10.6943 C.2         1 MOL      -0.0744
     11 C11        15.5896  -30.7414   12.3612 C.ar        1 MOL       0.0383
     12 C12        22.0047  -27.3257    9.4580 C.3         1 MOL       0.0473
     13 N13        22.4311  -28.1927    8.4060 N.am        1 MOL      -0.2765
     14 C14        21.6911  -29.0768    7.7343 C.2         1 MOL       0.2411
     15 C15        22.1747  -29.8475    6.6555 C.ar        1 MOL       0.2482
     16 C16        23.5553  -29.9199    6.3036 C.ar        1 MOL       0.3921
     17 C17        23.9789  -30.6934    5.2057 C.ar        1 MOL       0.3797
     18 C18        23.0496  -31.3799    4.4163 C.ar        1 MOL       0.1691
     19 C19        21.6742  -31.3542    4.7261 C.ar        1 MOL       0.2168
     20 C20        21.2675  -30.5955    5.8516 C.ar        1 MOL       0.1162
     21 N21        20.7743  -32.0300    3.9491 N.2         1 MOL      -0.1404
     22 O22        24.5284  -29.2742    6.9981 O.3         1 MOL      -0.1763
     23 O23        25.2984  -30.7945    4.8954 O.3         1 MOL      -0.1825
     24 O24        20.5092  -29.1843    8.0622 O.2         1 MOL      -0.3823
     25 O25        21.1333  -32.7056    2.8823 O.2         1 MOL      -0.4541
     26 O26        19.5921  -32.0492    4.1806 O.2         1 MOL      -0.4541
     27 C27        15.0880  -29.5234   12.8634 C.ar        1 MOL      -0.0217
     28 C28        13.8294  -29.5120   13.4933 C.ar        1 MOL       0.0039
     29 N29        13.1120  -30.6621   13.5987 N.ar        1 MOL      -0.3066
     30 C30        13.5720  -31.8516   13.1330 C.ar        1 MOL       0.0039
     31 C31        14.8264  -31.9191   12.4991 C.ar        1 MOL      -0.0217
     32 H1         20.0839  -31.2208   10.9051 H           1 MOL       0.0667
     33 H2         19.0666  -32.4921   12.6681 H           1 MOL       0.0659
     34 H3         17.7440  -30.3802   13.8140 H           1 MOL       0.0771
     35 H4         20.8792  -29.0703   12.9467 H           1 MOL       0.0748
     36 H5         19.8218  -28.6107   10.2216 H           1 MOL       0.0477
     37 H6         22.2604  -30.9332   11.4090 H           1 MOL       0.2102
     38 H7         19.2265  -31.4334   14.8740 H           1 MOL       0.2101
     39 H8         22.4173  -28.0888   11.3853 H           1 MOL       0.0470
     40 H9         22.8210  -26.6266    9.6596 H           1 MOL       0.0643
     41 H10        21.1618  -26.7338    9.1123 H           1 MOL       0.0643
     42 H11        23.3496  -28.0718    8.1130 H           1 MOL       0.1867
     43 H12        23.3949  -31.9220    3.6198 H           1 MOL       0.1086
     44 H13        20.2723  -30.5723    6.0774 H           1 MOL       0.1563
     45 H14        24.9810  -28.6860    6.3529 H           1 MOL       0.3540
     46 H15        25.6857  -31.3278    5.6330 H           1 MOL       0.3497
     47 H16        15.6191  -28.6542   12.7704 H           1 MOL       0.0660
     48 H17        13.4462  -28.6409   13.8674 H           1 MOL       0.0803
     49 H18        13.0033  -32.6924   13.2391 H           1 MOL       0.0803
     50 H19        15.1675  -32.8156   12.1370 H           1 MOL       0.0660
@<TRIPOS>BOND
     1     1     2   1
     2     1     5   1
     3     1     8   1
     4     2     3   1
     5     2     9   1
     6     3     4   1
     7     3     7   1
     8     4     5   1
     9     5     6   1
    10     6    10   2
    11     7    11   1
    12    10    12   1
    13    11    27  ar
    14    11    31  ar
    15    12    13   1
    16    13    14  am
    17    14    15   1
    18    14    24   2
    19    15    16  ar
    20    15    20  ar
    21    16    17  ar
    22    16    22   1
    23    17    18  ar
    24    17    23   1
    25    18    19  ar
    26    19    20  ar
    27    19    21   1
    28    21    25   2
    29    21    26   2
    30    27    28  ar
    31    28    29  ar
    32    29    30  ar
    33    30    31  ar
    34     1    32   1
    35     2    33   1
    36     3    34   1
    37     5    35   1
    38     6    36   1
    39     8    37   1
    40     9    38   1
    41    10    39   1
    42    12    40   1
    43    12    41   1
    44    13    42   1
    45    18    43   1
    46    20    44   1
    47    22    45   1
    48    23    46   1
    49    27    47   1
    50    28    48   1
    51    30    49   1
    52    31    50   1
@<TRIPOS>SUBSTRUCTURE
     1  MOL      1

