@<TRIPOS>MOLECULE
3oe5_ligand_042
    50    52
SMALL
GAST_HUCK
****
This file was generated by PARSER (from files_GN.cpp)

@<TRIPOS>ATOM
      1 C1         20.8062  -32.7293   13.2775 C.3         1 MOL       0.1170
      2 C2         20.7521  -34.1826   13.7970 C.3         1 MOL       0.1229
      3 C3         19.4210  -34.2358   14.5813 C.3         1 MOL       0.1499
      4 O4         18.6929  -33.0633   14.2014 O.3         1 MOL      -0.3460
      5 C5         19.6736  -32.0257   14.0618 C.3         1 MOL       0.1063
      6 C6         19.0307  -30.8284   13.5322 C.2         1 MOL      -0.0658
      7 S7         18.4242  -35.7080   14.2217 S.3         1 MOL      -0.0558
      8 O8         22.0687  -32.0944   13.4707 O.3         1 MOL      -0.3847
      9 O9         21.8365  -34.5341   14.6509 O.3         1 MOL      -0.3853
     10 C10        19.4799  -30.0519   12.5299 C.2         1 MOL      -0.0744
     11 C11        18.5246  -36.4926   15.7734 C.ar        1 MOL       0.0383
     12 C12        18.8288  -28.8225   12.1145 C.3         1 MOL       0.0473
     13 N13        19.7621  -27.8426   11.6434 N.am        1 MOL      -0.2765
     14 C14        20.6714  -27.1827   12.3526 C.2         1 MOL       0.2411
     15 C15        21.5634  -26.2757   11.7638 C.ar        1 MOL       0.2482
     16 C16        22.0740  -26.4484   10.4480 C.ar        1 MOL       0.3921
     17 C17        22.9735  -25.5146    9.8953 C.ar        1 MOL       0.3797
     18 C18        23.3768  -24.3987   10.6465 C.ar        1 MOL       0.1691
     19 C19        22.8990  -24.1825   11.9592 C.ar        1 MOL       0.2168
     20 C20        22.0038  -25.1426   12.4959 C.ar        1 MOL       0.1162
     21 N21        23.2624  -23.0668   12.6590 N.2         1 MOL      -0.1404
     22 O22        21.7430  -27.5130    9.6783 O.3         1 MOL      -0.1763
     23 O23        23.4427  -25.6506    8.6261 O.3         1 MOL      -0.1825
     24 O24        20.6973  -27.3536   13.5664 O.2         1 MOL      -0.3823
     25 O25        24.0925  -22.1758   12.1861 O.2         1 MOL      -0.4541
     26 O26        22.8319  -22.8168   13.7544 O.2         1 MOL      -0.4541
     27 C27        17.5791  -36.1867   16.7732 C.ar        1 MOL      -0.0217
     28 C28        17.6709  -36.8257   18.0216 C.ar        1 MOL       0.0039
     29 N29        18.6596  -37.7283   18.2474 N.ar        1 MOL      -0.3066
     30 C30        19.5813  -38.0540   17.3033 C.ar        1 MOL       0.0039
     31 C31        19.5343  -37.4419   16.0369 C.ar        1 MOL      -0.0217
     32 H1         20.5761  -32.7439   12.2082 H           1 MOL       0.0667
     33 H2         20.7547  -34.8724   12.9481 H           1 MOL       0.0659
     34 H3         19.6082  -34.1561   15.6528 H           1 MOL       0.0771
     35 H4         20.0504  -31.7539   15.0556 H           1 MOL       0.0748
     36 H5         18.1958  -30.5503   13.9972 H           1 MOL       0.0477
     37 H6         21.9655  -31.1876   13.1095 H           1 MOL       0.2102
     38 H7         22.6477  -34.4115   14.1100 H           1 MOL       0.2101
     39 H8         20.2948  -30.3157   12.0314 H           1 MOL       0.0470
     40 H9         18.2216  -28.3904   12.9150 H           1 MOL       0.0643
     41 H10        18.1673  -29.0834   11.2870 H           1 MOL       0.0643
     42 H11        19.6880  -27.6158   10.7080 H           1 MOL       0.1867
     43 H12        24.0169  -23.7287   10.2138 H           1 MOL       0.1086
     44 H13        21.6432  -24.9981   13.4434 H           1 MOL       0.1563
     45 H14        20.8537  -27.2834    9.3457 H           1 MOL       0.3540
     46 H15        23.8563  -26.5385    8.5965 H           1 MOL       0.3497
     47 H16        16.8357  -35.5053   16.6067 H           1 MOL       0.0660
     48 H17        17.0007  -36.6154   18.7624 H           1 MOL       0.0803
     49 H18        20.3046  -38.7434   17.5196 H           1 MOL       0.0803
     50 H19        20.2284  -37.6863   15.3257 H           1 MOL       0.0660
@<TRIPOS>BOND
     1     1     2   1
     2     1     5   1
     3     1     8   1
     4     2     3   1
     5     2     9   1
     6     3     4   1
     7     3     7   1
     8     4     5   1
     9     5     6   1
    10     6    10   2
    11     7    11   1
    12    10    12   1
    13    11    27  ar
    14    11    31  ar
    15    12    13   1
    16    13    14  am
    17    14    15   1
    18    14    24   2
    19    15    16  ar
    20    15    20  ar
    21    16    17  ar
    22    16    22   1
    23    17    18  ar
    24    17    23   1
    25    18    19  ar
    26    19    20  ar
    27    19    21   1
    28    21    25   2
    29    21    26   2
    30    27    28  ar
    31    28    29  ar
    32    29    30  ar
    33    30    31  ar
    34     1    32   1
    35     2    33   1
    36     3    34   1
    37     5    35   1
    38     6    36   1
    39     8    37   1
    40     9    38   1
    41    10    39   1
    42    12    40   1
    43    12    41   1
    44    13    42   1
    45    18    43   1
    46    20    44   1
    47    22    45   1
    48    23    46   1
    49    27    47   1
    50    28    48   1
    51    30    49   1
    52    31    50   1
@<TRIPOS>SUBSTRUCTURE
     1  MOL      1

