@<TRIPOS>MOLECULE
3oe5_ligand_039
    50    52
SMALL
GAST_HUCK
****
This file was generated by PARSER (from files_GN.cpp)

@<TRIPOS>ATOM
      1 C1         13.8436  -30.0069   13.8395 C.3         1 MOL       0.1170
      2 C2         15.1887  -29.5745   13.2252 C.3         1 MOL       0.1229
      3 C3         15.8494  -30.9242   12.8998 C.3         1 MOL       0.1499
      4 O4         14.7754  -31.7456   12.4509 O.3         1 MOL      -0.3460
      5 C5         13.6274  -31.4315   13.2520 C.3         1 MOL       0.1063
      6 C6         12.4757  -31.5593   12.3704 C.2         1 MOL      -0.0658
      7 S7         17.1021  -30.8646   11.5927 S.3         1 MOL      -0.0558
      8 O8         13.9412  -30.0176   15.2660 O.3         1 MOL      -0.3847
      9 O9         16.0129  -28.7994   14.0946 O.3         1 MOL      -0.3853
     10 C10        11.6423  -32.6138   12.3910 C.2         1 MOL      -0.0744
     11 C11        18.4155  -30.2205   12.5405 C.ar        1 MOL       0.0383
     12 C12        10.5658  -32.8188   11.4357 C.3         1 MOL       0.0473
     13 N13        10.8990  -33.8568   10.5133 N.am        1 MOL      -0.2765
     14 C14        10.9434  -35.1593   10.7643 C.2         1 MOL       0.2411
     15 C15        11.3806  -36.0373    9.7761 C.ar        1 MOL       0.2482
     16 C16        12.2567  -37.1070   10.0862 C.ar        1 MOL       0.3921
     17 C17        12.7058  -37.9730    9.0749 C.ar        1 MOL       0.3797
     18 C18        12.2841  -37.7914    7.7479 C.ar        1 MOL       0.1691
     19 C19        11.3948  -36.7484    7.3937 C.ar        1 MOL       0.2168
     20 C20        10.9633  -35.8798    8.4291 C.ar        1 MOL       0.1162
     21 N21        10.9702  -36.5890    6.1055 N.2         1 MOL      -0.1404
     22 O22        12.7237  -37.3107   11.3447 O.3         1 MOL      -0.1763
     23 O23        13.5650  -38.9756    9.3727 O.3         1 MOL      -0.1825
     24 O24        10.6466  -35.5831   11.8768 O.2         1 MOL      -0.3823
     25 O25        11.3697  -37.3732    5.1404 O.2         1 MOL      -0.4541
     26 O26        10.1973  -35.7260    5.7730 O.2         1 MOL      -0.4541
     27 C27        19.1186  -31.0489   13.4405 C.ar        1 MOL      -0.0217
     28 C28        20.1559  -30.4987   14.2136 C.ar        1 MOL       0.0039
     29 N29        20.4807  -29.1878   14.0746 N.ar        1 MOL      -0.3066
     30 C30        19.8403  -28.3657   13.2036 C.ar        1 MOL       0.0039
     31 C31        18.7933  -28.8679   12.4076 C.ar        1 MOL      -0.0217
     32 H1         13.0475  -29.3084   13.5617 H           1 MOL       0.0667
     33 H2         15.0002  -29.0058   12.3103 H           1 MOL       0.0659
     34 H3         16.2720  -31.3731   13.8031 H           1 MOL       0.0771
     35 H4         13.5825  -32.1580   14.0700 H           1 MOL       0.0748
     36 H5         12.3685  -30.8760   11.6536 H           1 MOL       0.0477
     37 H6         13.0975  -30.3810   15.6065 H           1 MOL       0.2102
     38 H7         15.4092  -28.1712   14.5400 H           1 MOL       0.2101
     39 H8         11.8050  -33.3377   13.0533 H           1 MOL       0.0470
     40 H9         10.3798  -31.9135   10.8515 H           1 MOL       0.0643
     41 H10         9.6398  -33.0647   11.9628 H           1 MOL       0.0643
     42 H11        11.1572  -33.5722    9.6223 H           1 MOL       0.1867
     43 H12        12.6337  -38.4363    7.0359 H           1 MOL       0.1086
     44 H13        10.3038  -35.1320    8.1988 H           1 MOL       0.1563
     45 H14        12.0741  -37.9223   11.7496 H           1 MOL       0.3540
     46 H15        14.4485  -38.5540    9.3317 H           1 MOL       0.3497
     47 H16        18.8772  -32.0375   13.5448 H           1 MOL       0.0660
     48 H17        20.6632  -31.0772   14.8852 H           1 MOL       0.0803
     49 H18        20.1203  -27.3853   13.1370 H           1 MOL       0.0803
     50 H19        18.3116  -28.2482   11.7523 H           1 MOL       0.0660
@<TRIPOS>BOND
     1     1     2   1
     2     1     5   1
     3     1     8   1
     4     2     3   1
     5     2     9   1
     6     3     4   1
     7     3     7   1
     8     4     5   1
     9     5     6   1
    10     6    10   2
    11     7    11   1
    12    10    12   1
    13    11    27  ar
    14    11    31  ar
    15    12    13   1
    16    13    14  am
    17    14    15   1
    18    14    24   2
    19    15    16  ar
    20    15    20  ar
    21    16    17  ar
    22    16    22   1
    23    17    18  ar
    24    17    23   1
    25    18    19  ar
    26    19    20  ar
    27    19    21   1
    28    21    25   2
    29    21    26   2
    30    27    28  ar
    31    28    29  ar
    32    29    30  ar
    33    30    31  ar
    34     1    32   1
    35     2    33   1
    36     3    34   1
    37     5    35   1
    38     6    36   1
    39     8    37   1
    40     9    38   1
    41    10    39   1
    42    12    40   1
    43    12    41   1
    44    13    42   1
    45    18    43   1
    46    20    44   1
    47    22    45   1
    48    23    46   1
    49    27    47   1
    50    28    48   1
    51    30    49   1
    52    31    50   1
@<TRIPOS>SUBSTRUCTURE
     1  MOL      1

