@<TRIPOS>MOLECULE
3oe5_ligand_033
    50    52
SMALL
GAST_HUCK
****
This file was generated by PARSER (from files_GN.cpp)

@<TRIPOS>ATOM
      1 C1         20.1744  -31.9508   13.8618 C.3         1 MOL       0.1170
      2 C2         19.2024  -32.4311   12.7747 C.3         1 MOL       0.1229
      3 C3         17.9182  -31.6470   13.1194 C.3         1 MOL       0.1499
      4 O4         18.3107  -30.4537   13.8092 O.3         1 MOL      -0.3460
      5 C5         19.7331  -30.4791   14.0626 C.3         1 MOL       0.1063
      6 C6         20.3797  -29.5156   13.1806 C.2         1 MOL      -0.0658
      7 S7         16.9583  -31.1958   11.6462 S.3         1 MOL      -0.0558
      8 O8         20.0220  -32.7092   15.0664 O.3         1 MOL      -0.3847
      9 O9         18.9954  -33.8457   12.7845 O.3         1 MOL      -0.3853
     10 C10        20.0333  -28.2166   13.1619 C.2         1 MOL      -0.0744
     11 C11        15.4159  -30.9711   12.4203 C.ar        1 MOL       0.0383
     12 C12        20.4413  -27.2554   12.1459 C.3         1 MOL       0.0473
     13 N13        21.0743  -27.7585   10.9634 N.am        1 MOL      -0.2765
     14 C14        20.5873  -28.6616   10.1201 C.2         1 MOL       0.2411
     15 C15        21.3369  -29.0605    9.0110 C.ar        1 MOL       0.2482
     16 C16        21.3135  -30.3953    8.5288 C.ar        1 MOL       0.3921
     17 C17        22.1175  -30.7787    7.4381 C.ar        1 MOL       0.3797
     18 C18        22.9340  -29.8250    6.8017 C.ar        1 MOL       0.1691
     19 C19        22.9789  -28.4784    7.2362 C.ar        1 MOL       0.2168
     20 C20        22.1779  -28.1278    8.3525 C.ar        1 MOL       0.1162
     21 N21        23.7740  -27.5610    6.6087 N.2         1 MOL      -0.1404
     22 O22        20.5476  -31.3443    9.1286 O.3         1 MOL      -0.1763
     23 O23        22.1239  -32.0562    6.9870 O.3         1 MOL      -0.1825
     24 O24        19.5022  -29.1944   10.3394 O.2         1 MOL      -0.3823
     25 O25        24.5405  -27.8659    5.5960 O.2         1 MOL      -0.4541
     26 O26        23.7950  -26.4019    6.9305 O.2         1 MOL      -0.4541
     27 C27        14.5714  -32.0796   12.6314 C.ar        1 MOL      -0.0217
     28 C28        13.3100  -31.8798   13.2242 C.ar        1 MOL       0.0039
     29 N29        12.9182  -30.6277   13.5710 N.ar        1 MOL      -0.3066
     30 C30        13.7051  -29.5364   13.3780 C.ar        1 MOL       0.0039
     31 C31        14.9783  -29.6820   12.7957 C.ar        1 MOL      -0.0217
     32 H1         21.2138  -32.0379   13.5392 H           1 MOL       0.0667
     33 H2         19.5956  -32.1413   11.7925 H           1 MOL       0.0659
     34 H3         17.3102  -32.2384   13.8080 H           1 MOL       0.0771
     35 H4         19.9358  -30.1831   15.0927 H           1 MOL       0.0748
     36 H5         21.0547  -29.8456   12.5293 H           1 MOL       0.0477
     37 H6         19.2989  -32.2695   15.5597 H           1 MOL       0.2102
     38 H7         19.8985  -34.2352   12.7680 H           1 MOL       0.2101
     39 H8         19.4043  -27.8882   13.8514 H           1 MOL       0.0470
     40 H9         21.1342  -26.5508   12.6119 H           1 MOL       0.0643
     41 H10        19.5621  -26.6784   11.8366 H           1 MOL       0.0643
     42 H11        21.9515  -27.4039   10.7595 H           1 MOL       0.1867
     43 H12        23.5116  -30.1275    6.0140 H           1 MOL       0.1086
     44 H13        22.1881  -27.1605    8.6803 H           1 MOL       0.1563
     45 H14        21.1551  -31.7724    9.7705 H           1 MOL       0.3540
     46 H15        22.6672  -32.5567    7.6366 H           1 MOL       0.3497
     47 H16        14.8603  -33.0235   12.3595 H           1 MOL       0.0660
     48 H17        12.6842  -32.6681   13.3927 H           1 MOL       0.0803
     49 H18        13.3659  -28.6139   13.6554 H           1 MOL       0.0803
     50 H19        15.5682  -28.8600   12.6473 H           1 MOL       0.0660
@<TRIPOS>BOND
     1     1     2   1
     2     1     5   1
     3     1     8   1
     4     2     3   1
     5     2     9   1
     6     3     4   1
     7     3     7   1
     8     4     5   1
     9     5     6   1
    10     6    10   2
    11     7    11   1
    12    10    12   1
    13    11    27  ar
    14    11    31  ar
    15    12    13   1
    16    13    14  am
    17    14    15   1
    18    14    24   2
    19    15    16  ar
    20    15    20  ar
    21    16    17  ar
    22    16    22   1
    23    17    18  ar
    24    17    23   1
    25    18    19  ar
    26    19    20  ar
    27    19    21   1
    28    21    25   2
    29    21    26   2
    30    27    28  ar
    31    28    29  ar
    32    29    30  ar
    33    30    31  ar
    34     1    32   1
    35     2    33   1
    36     3    34   1
    37     5    35   1
    38     6    36   1
    39     8    37   1
    40     9    38   1
    41    10    39   1
    42    12    40   1
    43    12    41   1
    44    13    42   1
    45    18    43   1
    46    20    44   1
    47    22    45   1
    48    23    46   1
    49    27    47   1
    50    28    48   1
    51    30    49   1
    52    31    50   1
@<TRIPOS>SUBSTRUCTURE
     1  MOL      1

