@<TRIPOS>MOLECULE
3oe5_ligand_021
    50    52
SMALL
GAST_HUCK
****
This file was generated by PARSER (from files_GN.cpp)

@<TRIPOS>ATOM
      1 C1         20.4665  -32.7307   14.1799 C.3         1 MOL       0.1170
      2 C2         21.6112  -33.7369   13.9961 C.3         1 MOL       0.1229
      3 C3         21.7544  -33.8340   12.4629 C.3         1 MOL       0.1499
      4 O4         20.4685  -33.5427   11.8933 O.3         1 MOL      -0.3460
      5 C5         19.6236  -32.9412   12.8931 C.3         1 MOL       0.1063
      6 C6         18.9606  -31.7508   12.3831 C.2         1 MOL      -0.0658
      7 S7         22.9978  -32.6739   11.8257 S.3         1 MOL      -0.0558
      8 O8         19.7095  -32.9790   15.3668 O.3         1 MOL      -0.3847
      9 O9         21.2703  -35.0100   14.5536 O.3         1 MOL      -0.3853
     10 C10        19.5790  -30.5593   12.2233 C.2         1 MOL      -0.0744
     11 C11        22.7171  -32.9946   10.1364 C.ar        1 MOL       0.0383
     12 C12        18.8857  -29.3802   11.7536 C.3         1 MOL       0.0473
     13 N13        19.7590  -28.3125   11.3672 N.am        1 MOL      -0.2765
     14 C14        20.6482  -27.6715   12.1266 C.2         1 MOL       0.2411
     15 C15        21.4901  -26.6921   11.5923 C.ar        1 MOL       0.2482
     16 C16        22.0541  -26.8145   10.2896 C.ar        1 MOL       0.3921
     17 C17        22.9004  -25.8140    9.7793 C.ar        1 MOL       0.3797
     18 C18        23.2094  -24.6886   10.5606 C.ar        1 MOL       0.1691
     19 C19        22.6814  -24.5192   11.8603 C.ar        1 MOL       0.2168
     20 C20        21.8203  -25.5378   12.3531 C.ar        1 MOL       0.1162
     21 N21        22.9641  -23.4028   12.5886 N.2         1 MOL      -0.1404
     22 O22        21.8382  -27.9028    9.5047 O.3         1 MOL      -0.1763
     23 O23        23.4157  -25.8974    8.5260 O.3         1 MOL      -0.1825
     24 O24        20.6885  -27.9230   13.3298 O.2         1 MOL      -0.3823
     25 O25        23.7793  -22.4784   12.1501 O.2         1 MOL      -0.4541
     26 O26        22.5089  -23.1876   13.6825 O.2         1 MOL      -0.4541
     27 C27        23.6684  -33.7225    9.3882 C.ar        1 MOL      -0.0217
     28 C28        23.4106  -33.9870    8.0283 C.ar        1 MOL       0.0039
     29 N29        22.2659  -33.5358    7.4578 N.ar        1 MOL      -0.3066
     30 C30        21.3378  -32.8224    8.1450 C.ar        1 MOL       0.0039
     31 C31        21.5435  -32.5314    9.5077 C.ar        1 MOL      -0.0217
     32 H1         20.8786  -31.7155   14.2287 H           1 MOL       0.0667
     33 H2         22.5241  -33.3855   14.4844 H           1 MOL       0.0659
     34 H3         22.0443  -34.8519   12.1891 H           1 MOL       0.0771
     35 H4         18.8524  -33.6896   13.1112 H           1 MOL       0.0748
     36 H5         17.9946  -31.8245   12.1417 H           1 MOL       0.0477
     37 H6         19.1787  -32.1695   15.5116 H           1 MOL       0.2102
     38 H7         20.8314  -35.4939   13.8224 H           1 MOL       0.2101
     39 H8         20.5535  -30.4975   12.4289 H           1 MOL       0.0470
     40 H9         18.1856  -29.0220   12.5170 H           1 MOL       0.0643
     41 H10        18.2981  -29.6557   10.8728 H           1 MOL       0.0643
     42 H11        19.6582  -27.9858   10.4634 H           1 MOL       0.1867
     43 H12        23.8264  -23.9753   10.1624 H           1 MOL       0.1086
     44 H13        21.4174  -25.4283   13.2864 H           1 MOL       0.1563
     45 H14        22.5638  -28.5225    9.7246 H           1 MOL       0.3540
     46 H15        23.9462  -26.7242    8.5131 H           1 MOL       0.3497
     47 H16        24.5308  -34.0638    9.8193 H           1 MOL       0.0660
     48 H17        24.0800  -34.5220    7.4724 H           1 MOL       0.0803
     49 H18        20.4908  -32.5036    7.6728 H           1 MOL       0.0803
     50 H19        20.8437  -31.9948   10.0267 H           1 MOL       0.0660
@<TRIPOS>BOND
     1     1     2   1
     2     1     5   1
     3     1     8   1
     4     2     3   1
     5     2     9   1
     6     3     4   1
     7     3     7   1
     8     4     5   1
     9     5     6   1
    10     6    10   2
    11     7    11   1
    12    10    12   1
    13    11    27  ar
    14    11    31  ar
    15    12    13   1
    16    13    14  am
    17    14    15   1
    18    14    24   2
    19    15    16  ar
    20    15    20  ar
    21    16    17  ar
    22    16    22   1
    23    17    18  ar
    24    17    23   1
    25    18    19  ar
    26    19    20  ar
    27    19    21   1
    28    21    25   2
    29    21    26   2
    30    27    28  ar
    31    28    29  ar
    32    29    30  ar
    33    30    31  ar
    34     1    32   1
    35     2    33   1
    36     3    34   1
    37     5    35   1
    38     6    36   1
    39     8    37   1
    40     9    38   1
    41    10    39   1
    42    12    40   1
    43    12    41   1
    44    13    42   1
    45    18    43   1
    46    20    44   1
    47    22    45   1
    48    23    46   1
    49    27    47   1
    50    28    48   1
    51    30    49   1
    52    31    50   1
@<TRIPOS>SUBSTRUCTURE
     1  MOL      1

