@<TRIPOS>MOLECULE
3oe5_ligand_049
    50    52
SMALL
GAST_HUCK
****
This file was generated by PARSER (from files_GN.cpp)

@<TRIPOS>ATOM
      1 C1         17.9158  -31.3603   13.6639 C.3         1 MOL       0.1170
      2 C2         16.9828  -32.1054   12.7022 C.3         1 MOL       0.1229
      3 C3         15.7884  -31.1284   12.6170 C.3         1 MOL       0.1499
      4 O4         16.3035  -29.8105   12.8840 O.3         1 MOL      -0.3460
      5 C5         17.7018  -29.8960   13.2068 C.3         1 MOL       0.1063
      6 C6         18.4566  -29.3736   12.0700 C.2         1 MOL      -0.0658
      7 S7         15.0109  -31.1293   10.9755 S.3         1 MOL      -0.0558
      8 O8         17.4746  -31.5322   15.0113 O.3         1 MOL      -0.3847
      9 O9         16.6206  -33.4063   13.1558 O.3         1 MOL      -0.3853
     10 C10        19.5472  -29.9084   11.4816 C.2         1 MOL      -0.0744
     11 C11        13.4364  -31.8326   11.2493 C.ar        1 MOL       0.0383
     12 C12        20.2723  -29.2589   10.3945 C.3         1 MOL       0.0473
     13 N13        20.5684  -27.8895   10.6667 N.am        1 MOL      -0.2765
     14 C14        21.0341  -27.3631   11.7918 C.2         1 MOL       0.2411
     15 C15        21.1556  -25.9827   11.9361 C.ar        1 MOL       0.2482
     16 C16        20.0701  -25.0895   11.7188 C.ar        1 MOL       0.3921
     17 C17        20.2327  -23.7059   11.9260 C.ar        1 MOL       0.3797
     18 C18        21.4692  -23.2032   12.3658 C.ar        1 MOL       0.1691
     19 C19        22.5759  -24.0565   12.5904 C.ar        1 MOL       0.2168
     20 C20        22.3946  -25.4384   12.3552 C.ar        1 MOL       0.1162
     21 N21        23.7676  -23.5680   13.0364 N.2         1 MOL      -0.1404
     22 O22        18.8404  -25.5786   11.3916 O.3         1 MOL      -0.1763
     23 O23        19.1944  -22.8521   11.7083 O.3         1 MOL      -0.1825
     24 O24        21.3472  -28.1004   12.7243 O.2         1 MOL      -0.3823
     25 O25        23.9283  -22.3118   13.3462 O.2         1 MOL      -0.4541
     26 O26        24.7215  -24.2696   13.2498 O.2         1 MOL      -0.4541
     27 C27        13.2098  -32.8908   12.1536 C.ar        1 MOL      -0.0217
     28 C28        11.9093  -33.4188   12.2812 C.ar        1 MOL       0.0039
     29 N29        10.8929  -32.9247   11.5281 N.ar        1 MOL      -0.3066
     30 C30        11.0805  -31.9312   10.6248 C.ar        1 MOL       0.0039
     31 C31        12.3587  -31.3678   10.4610 C.ar        1 MOL      -0.0217
     32 H1         18.9521  -31.6999   13.5948 H           1 MOL       0.0667
     33 H2         17.4767  -32.2070   11.7318 H           1 MOL       0.0659
     34 H3         15.0542  -31.3508   13.4002 H           1 MOL       0.0771
     35 H4         17.9045  -29.2282   14.0438 H           1 MOL       0.0748
     36 H5         18.1583  -28.4892   11.7398 H           1 MOL       0.0477
     37 H6         18.1354  -32.1392   15.4114 H           1 MOL       0.2102
     38 H7         17.4748  -33.8320   13.3884 H           1 MOL       0.2101
     39 H8         19.9216  -30.7643   11.8272 H           1 MOL       0.0470
     40 H9         19.6627  -29.3032    9.4941 H           1 MOL       0.0643
     41 H10        21.2004  -29.7928   10.1874 H           1 MOL       0.0643
     42 H11        20.3820  -27.2674    9.9500 H           1 MOL       0.1867
     43 H12        21.5577  -22.1992   12.5174 H           1 MOL       0.1086
     44 H13        23.1870  -26.0703   12.4969 H           1 MOL       0.1563
     45 H14        18.2270  -24.8250   11.2693 H           1 MOL       0.3540
     46 H15        19.2297  -22.1789   12.4233 H           1 MOL       0.3497
     47 H16        13.9669  -33.2854   12.7090 H           1 MOL       0.0660
     48 H17        11.7219  -34.1871   12.9342 H           1 MOL       0.0803
     49 H18        10.2910  -31.5987   10.0715 H           1 MOL       0.0803
     50 H19        12.4903  -30.6275    9.7657 H           1 MOL       0.0660
@<TRIPOS>BOND
     1     1     2   1
     2     1     5   1
     3     1     8   1
     4     2     3   1
     5     2     9   1
     6     3     4   1
     7     3     7   1
     8     4     5   1
     9     5     6   1
    10     6    10   2
    11     7    11   1
    12    10    12   1
    13    11    27  ar
    14    11    31  ar
    15    12    13   1
    16    13    14  am
    17    14    15   1
    18    14    24   2
    19    15    16  ar
    20    15    20  ar
    21    16    17  ar
    22    16    22   1
    23    17    18  ar
    24    17    23   1
    25    18    19  ar
    26    19    20  ar
    27    19    21   1
    28    21    25   2
    29    21    26   2
    30    27    28  ar
    31    28    29  ar
    32    29    30  ar
    33    30    31  ar
    34     1    32   1
    35     2    33   1
    36     3    34   1
    37     5    35   1
    38     6    36   1
    39     8    37   1
    40     9    38   1
    41    10    39   1
    42    12    40   1
    43    12    41   1
    44    13    42   1
    45    18    43   1
    46    20    44   1
    47    22    45   1
    48    23    46   1
    49    27    47   1
    50    28    48   1
    51    30    49   1
    52    31    50   1
@<TRIPOS>SUBSTRUCTURE
     1  MOL      1

