@<TRIPOS>MOLECULE
3oe5_ligand_071
    50    52
SMALL
GAST_HUCK
****
This file was generated by PARSER (from files_GN.cpp)

@<TRIPOS>ATOM
      1 C1         23.2641  -31.6936   13.0527 C.3         1 MOL       0.1170
      2 C2         22.3930  -32.7395   12.3471 C.3         1 MOL       0.1229
      3 C3         21.4897  -33.2094   13.5038 C.3         1 MOL       0.1499
      4 O4         21.3123  -32.0943   14.3872 O.3         1 MOL      -0.3460
      5 C5         22.2742  -31.0710   14.0716 C.3         1 MOL       0.1063
      6 C6         21.6545  -29.8357   13.5960 C.2         1 MOL      -0.0658
      7 S7         19.9178  -33.9449   12.9809 S.3         1 MOL      -0.0558
      8 O8         24.3717  -32.2982   13.7219 O.3         1 MOL      -0.3847
      9 O9         23.1223  -33.8023   11.7305 O.3         1 MOL      -0.3853
     10 C10        20.3829  -29.4694   13.8391 C.2         1 MOL      -0.0744
     11 C11        18.9261  -32.5326   12.7255 C.ar        1 MOL       0.0383
     12 C12        19.7310  -28.2385   13.4045 C.3         1 MOL       0.0473
     13 N13        20.5417  -27.1949   12.8564 N.am        1 MOL      -0.2765
     14 C14        21.1071  -27.1834   11.6512 C.2         1 MOL       0.2411
     15 C15        21.9592  -26.1466   11.2395 C.ar        1 MOL       0.2482
     16 C16        22.5354  -26.1287    9.9358 C.ar        1 MOL       0.3921
     17 C17        23.4795  -25.1492    9.5804 C.ar        1 MOL       0.3797
     18 C18        23.8149  -24.1322   10.4902 C.ar        1 MOL       0.1691
     19 C19        23.2287  -24.0700   11.7739 C.ar        1 MOL       0.2168
     20 C20        22.3174  -25.0935   12.1230 C.ar        1 MOL       0.1162
     21 N21        23.5270  -23.0482   12.6353 N.2         1 MOL      -0.1404
     22 O22        22.1994  -27.0197    8.9679 O.3         1 MOL      -0.1763
     23 O23        24.0456  -25.1718    8.3451 O.3         1 MOL      -0.1825
     24 O24        20.8917  -28.1472   10.9265 O.2         1 MOL      -0.3823
     25 O25        24.3768  -22.1065   12.3357 O.2         1 MOL      -0.4541
     26 O26        23.0061  -22.9280   13.7130 O.2         1 MOL      -0.4541
     27 C27        17.9643  -32.1799   13.6947 C.ar        1 MOL      -0.0217
     28 C28        17.0986  -31.1004   13.4444 C.ar        1 MOL       0.0039
     29 N29        17.1900  -30.4205   12.2743 N.ar        1 MOL      -0.3066
     30 C30        18.1039  -30.7265   11.3205 C.ar        1 MOL       0.0039
     31 C31        18.9996  -31.7899   11.5288 C.ar        1 MOL      -0.0217
     32 H1         23.6620  -30.9712   12.3392 H           1 MOL       0.0667
     33 H2         21.8088  -32.2424   11.5719 H           1 MOL       0.0659
     34 H3         22.0228  -33.9831   14.0643 H           1 MOL       0.0771
     35 H4         22.8111  -30.8232   14.9856 H           1 MOL       0.0748
     36 H5         22.2419  -29.1920   13.1284 H           1 MOL       0.0477
     37 H6         24.9866  -32.5856   13.0115 H           1 MOL       0.2102
     38 H7         23.6039  -34.2531   12.4552 H           1 MOL       0.2101
     39 H8         19.8155  -30.0869   14.3672 H           1 MOL       0.0470
     40 H9         19.2383  -27.8059   14.2728 H           1 MOL       0.0643
     41 H10        18.9431  -28.4785   12.6914 H           1 MOL       0.0643
     42 H11        20.6509  -26.4089   13.4083 H           1 MOL       0.1867
     43 H12        24.4769  -23.4178   10.1886 H           1 MOL       0.1086
     44 H13        21.9174  -25.0640   13.0625 H           1 MOL       0.1563
     45 H14        21.2206  -27.0354    8.9891 H           1 MOL       0.3540
     46 H15        25.0086  -25.0496    8.4842 H           1 MOL       0.3497
     47 H16        17.9011  -32.6829   14.5809 H           1 MOL       0.0660
     48 H17        16.4048  -30.8188   14.1368 H           1 MOL       0.0803
     49 H18        18.1477  -30.1721   10.4648 H           1 MOL       0.0803
     50 H19        19.6789  -32.0211   10.8047 H           1 MOL       0.0660
@<TRIPOS>BOND
     1     1     2   1
     2     1     5   1
     3     1     8   1
     4     2     3   1
     5     2     9   1
     6     3     4   1
     7     3     7   1
     8     4     5   1
     9     5     6   1
    10     6    10   2
    11     7    11   1
    12    10    12   1
    13    11    27  ar
    14    11    31  ar
    15    12    13   1
    16    13    14  am
    17    14    15   1
    18    14    24   2
    19    15    16  ar
    20    15    20  ar
    21    16    17  ar
    22    16    22   1
    23    17    18  ar
    24    17    23   1
    25    18    19  ar
    26    19    20  ar
    27    19    21   1
    28    21    25   2
    29    21    26   2
    30    27    28  ar
    31    28    29  ar
    32    29    30  ar
    33    30    31  ar
    34     1    32   1
    35     2    33   1
    36     3    34   1
    37     5    35   1
    38     6    36   1
    39     8    37   1
    40     9    38   1
    41    10    39   1
    42    12    40   1
    43    12    41   1
    44    13    42   1
    45    18    43   1
    46    20    44   1
    47    22    45   1
    48    23    46   1
    49    27    47   1
    50    28    48   1
    51    30    49   1
    52    31    50   1
@<TRIPOS>SUBSTRUCTURE
     1  MOL      1

