@<TRIPOS>MOLECULE
3oe5_ligand_003
    50    52
SMALL
GAST_HUCK
****
This file was generated by PARSER (from files_GN.cpp)

@<TRIPOS>ATOM
      1 C1         16.5934  -29.6859   14.0996 C.3         1 MOL       0.1170
      2 C2         15.1101  -29.8238   13.6993 C.3         1 MOL       0.1229
      3 C3         15.1655  -30.5279   12.3109 C.3         1 MOL       0.1499
      4 O4         16.5414  -30.5938   11.9176 O.3         1 MOL      -0.3460
      5 C5         17.2956  -29.6864   12.7321 C.3         1 MOL       0.1063
      6 C6         18.6733  -30.1259   12.7811 C.2         1 MOL      -0.0658
      7 S7         14.6242  -32.2588   12.2974 S.3         1 MOL      -0.0558
      8 O8         16.9133  -28.4891   14.8130 O.3         1 MOL      -0.3847
      9 O9         14.4466  -28.5562   13.6157 O.3         1 MOL      -0.3853
     10 C10        19.7059  -29.3054   13.0759 C.2         1 MOL      -0.0744
     11 C11        12.9863  -32.1302   11.6948 C.ar        1 MOL       0.0383
     12 C12        21.0816  -29.6835   12.8224 C.3         1 MOL       0.0473
     13 N13        21.5648  -29.1699   11.5827 N.am        1 MOL      -0.2765
     14 C14        20.9414  -29.1608   10.4009 C.2         1 MOL       0.2411
     15 C15        21.5897  -28.7227    9.2520 C.ar        1 MOL       0.2482
     16 C16        22.2995  -27.4841    9.1927 C.ar        1 MOL       0.3921
     17 C17        23.0742  -27.1479    8.0640 C.ar        1 MOL       0.3797
     18 C18        23.0938  -27.9986    6.9487 C.ar        1 MOL       0.1691
     19 C19        22.3636  -29.2090    6.9327 C.ar        1 MOL       0.2168
     20 C20        21.6230  -29.5485    8.0871 C.ar        1 MOL       0.1162
     21 N21        22.3884  -30.0235    5.8321 N.2         1 MOL      -0.1404
     22 O22        22.2076  -26.5750   10.1956 O.3         1 MOL      -0.1763
     23 O23        23.7483  -25.9793    8.0088 O.3         1 MOL      -0.1825
     24 O24        19.7783  -29.5809   10.3292 O.2         1 MOL      -0.3823
     25 O25        23.0880  -29.7468    4.7668 O.2         1 MOL      -0.4541
     26 O26        21.7735  -31.0564    5.7706 O.2         1 MOL      -0.4541
     27 C27        12.6734  -31.3966   10.5314 C.ar        1 MOL      -0.0217
     28 C28        11.3412  -31.3625   10.0747 C.ar        1 MOL       0.0039
     29 N29        10.3916  -32.1060   10.7049 N.ar        1 MOL      -0.3066
     30 C30        10.6733  -32.8877   11.7772 C.ar        1 MOL       0.0039
     31 C31        11.9755  -32.8961   12.3100 C.ar        1 MOL      -0.0217
     32 H1         16.8947  -30.5512   14.6918 H           1 MOL       0.0667
     33 H2         14.5685  -30.4289   14.4332 H           1 MOL       0.0659
     34 H3         14.6357  -29.9452   11.5469 H           1 MOL       0.0771
     35 H4         17.2140  -28.6940   12.2695 H           1 MOL       0.0748
     36 H5         18.8653  -31.0710   12.5141 H           1 MOL       0.0477
     37 H6         16.0667  -28.0899   15.0871 H           1 MOL       0.2102
     38 H7         14.8923  -28.0670   12.8916 H           1 MOL       0.2101
     39 H8         19.5117  -28.3716   13.3577 H           1 MOL       0.0470
     40 H9         21.2235  -30.7725   12.8353 H           1 MOL       0.0643
     41 H10        21.6921  -29.2748   13.6316 H           1 MOL       0.0643
     42 H11        22.4744  -28.8363   11.5852 H           1 MOL       0.1867
     43 H12        23.6398  -27.7100    6.1286 H           1 MOL       0.1086
     44 H13        21.1307  -30.4490    8.1090 H           1 MOL       0.1563
     45 H14        21.2767  -26.2543   10.1643 H           1 MOL       0.3540
     46 H15        24.4431  -26.0150    8.7169 H           1 MOL       0.3497
     47 H16        13.3996  -30.8792   10.0220 H           1 MOL       0.0660
     48 H17        11.0864  -30.7719    9.2876 H           1 MOL       0.0803
     49 H18         9.9281  -33.4508   12.1837 H           1 MOL       0.0803
     50 H19        12.1722  -33.4681   13.1384 H           1 MOL       0.0660
@<TRIPOS>BOND
     1     1     2   1
     2     1     5   1
     3     1     8   1
     4     2     3   1
     5     2     9   1
     6     3     4   1
     7     3     7   1
     8     4     5   1
     9     5     6   1
    10     6    10   2
    11     7    11   1
    12    10    12   1
    13    11    27  ar
    14    11    31  ar
    15    12    13   1
    16    13    14  am
    17    14    15   1
    18    14    24   2
    19    15    16  ar
    20    15    20  ar
    21    16    17  ar
    22    16    22   1
    23    17    18  ar
    24    17    23   1
    25    18    19  ar
    26    19    20  ar
    27    19    21   1
    28    21    25   2
    29    21    26   2
    30    27    28  ar
    31    28    29  ar
    32    29    30  ar
    33    30    31  ar
    34     1    32   1
    35     2    33   1
    36     3    34   1
    37     5    35   1
    38     6    36   1
    39     8    37   1
    40     9    38   1
    41    10    39   1
    42    12    40   1
    43    12    41   1
    44    13    42   1
    45    18    43   1
    46    20    44   1
    47    22    45   1
    48    23    46   1
    49    27    47   1
    50    28    48   1
    51    30    49   1
    52    31    50   1
@<TRIPOS>SUBSTRUCTURE
     1  MOL      1

