@<TRIPOS>MOLECULE
3oe5_ligand_041
    50    52
SMALL
GAST_HUCK
****
This file was generated by PARSER (from files_GN.cpp)

@<TRIPOS>ATOM
      1 C1         28.5519  -29.6409    1.2859 C.3         1 MOL       0.1170
      2 C2         27.5473  -30.7190    0.8507 C.3         1 MOL       0.1229
      3 C3         27.3810  -31.5359    2.1516 C.3         1 MOL       0.1499
      4 O4         27.6313  -30.6452    3.2482 O.3         1 MOL      -0.3460
      5 C5         28.1508  -29.3970    2.7587 C.3         1 MOL       0.1063
      6 C6         27.1574  -28.3454    2.9556 C.2         1 MOL      -0.0658
      7 S7         25.7401  -32.2656    2.3939 S.3         1 MOL      -0.0558
      8 O8         29.8998  -30.1138    1.2212 O.3         1 MOL      -0.3847
      9 O9         27.9987  -31.4881   -0.2670 O.3         1 MOL      -0.3853
     10 C10        26.6963  -28.0161    4.1732 C.2         1 MOL      -0.0744
     11 C11        25.7949  -33.4104    1.0868 C.ar        1 MOL       0.0383
     12 C12        25.8133  -26.8838    4.4119 C.3         1 MOL       0.0473
     13 N13        24.9798  -27.0645    5.5619 N.am        1 MOL      -0.2765
     14 C14        23.9110  -27.8564    5.6581 C.2         1 MOL       0.2411
     15 C15        23.1431  -27.9992    6.8320 C.ar        1 MOL       0.2482
     16 C16        23.2196  -27.0960    7.9300 C.ar        1 MOL       0.3921
     17 C17        22.4509  -27.3014    9.0967 C.ar        1 MOL       0.3797
     18 C18        21.5508  -28.3768    9.1625 C.ar        1 MOL       0.1691
     19 C19        21.3912  -29.2749    8.0843 C.ar        1 MOL       0.2168
     20 C20        22.2197  -29.0732    6.9488 C.ar        1 MOL       0.1162
     21 N21        20.4651  -30.2714    8.1413 N.2         1 MOL      -0.1404
     22 O22        23.9523  -25.9608    7.8785 O.3         1 MOL      -0.1763
     23 O23        22.5348  -26.4682   10.1694 O.3         1 MOL      -0.1825
     24 O24        23.6114  -28.5084    4.6597 O.2         1 MOL      -0.3823
     25 O25        19.6901  -30.4555    9.1745 O.2         1 MOL      -0.4541
     26 O26        20.2632  -31.0284    7.2259 O.2         1 MOL      -0.4541
     27 C27        25.0615  -33.1628   -0.0917 C.ar        1 MOL      -0.0217
     28 C28        25.1316  -34.0891   -1.1476 C.ar        1 MOL       0.0039
     29 N29        25.8911  -35.2094   -1.0185 N.ar        1 MOL      -0.3066
     30 C30        26.5963  -35.4825    0.1089 C.ar        1 MOL       0.0039
     31 C31        26.5595  -34.5895    1.1950 C.ar        1 MOL      -0.0217
     32 H1         28.4735  -28.7439    0.6614 H           1 MOL       0.0667
     33 H2         26.5995  -30.2438    0.5759 H           1 MOL       0.0659
     34 H3         28.1376  -32.3227    2.1991 H           1 MOL       0.0771
     35 H4         29.0360  -29.1371    3.3416 H           1 MOL       0.0748
     36 H5         26.8191  -27.8482    2.1658 H           1 MOL       0.0477
     37 H6         30.1114  -30.1651    0.2609 H           1 MOL       0.2102
     38 H7         28.8218  -31.9241    0.0299 H           1 MOL       0.2101
     39 H8         27.0381  -28.5140    4.9637 H           1 MOL       0.0470
     40 H9         25.1880  -26.6703    3.5356 H           1 MOL       0.0643
     41 H10        26.4416  -26.0058    4.5874 H           1 MOL       0.0643
     42 H11        25.2438  -26.5579    6.3456 H           1 MOL       0.1867
     43 H12        20.9936  -28.4900   10.0158 H           1 MOL       0.1086
     44 H13        22.1291  -29.7406    6.1760 H           1 MOL       0.1563
     45 H14        24.6363  -26.0633    8.5772 H           1 MOL       0.3540
     46 H15        23.4745  -26.1724   10.2120 H           1 MOL       0.3497
     47 H16        24.4900  -32.3212   -0.1926 H           1 MOL       0.0660
     48 H17        24.6162  -33.9258   -2.0163 H           1 MOL       0.0803
     49 H18        27.1534  -36.3380    0.1603 H           1 MOL       0.0803
     50 H19        27.0899  -34.7998    2.0443 H           1 MOL       0.0660
@<TRIPOS>BOND
     1     1     2   1
     2     1     5   1
     3     1     8   1
     4     2     3   1
     5     2     9   1
     6     3     4   1
     7     3     7   1
     8     4     5   1
     9     5     6   1
    10     6    10   2
    11     7    11   1
    12    10    12   1
    13    11    27  ar
    14    11    31  ar
    15    12    13   1
    16    13    14  am
    17    14    15   1
    18    14    24   2
    19    15    16  ar
    20    15    20  ar
    21    16    17  ar
    22    16    22   1
    23    17    18  ar
    24    17    23   1
    25    18    19  ar
    26    19    20  ar
    27    19    21   1
    28    21    25   2
    29    21    26   2
    30    27    28  ar
    31    28    29  ar
    32    29    30  ar
    33    30    31  ar
    34     1    32   1
    35     2    33   1
    36     3    34   1
    37     5    35   1
    38     6    36   1
    39     8    37   1
    40     9    38   1
    41    10    39   1
    42    12    40   1
    43    12    41   1
    44    13    42   1
    45    18    43   1
    46    20    44   1
    47    22    45   1
    48    23    46   1
    49    27    47   1
    50    28    48   1
    51    30    49   1
    52    31    50   1
@<TRIPOS>SUBSTRUCTURE
     1  MOL      1

