@<TRIPOS>MOLECULE
3oe5_ligand_067
    50    52
SMALL
GAST_HUCK
****
This file was generated by PARSER (from files_GN.cpp)

@<TRIPOS>ATOM
      1 C1         23.3512  -34.3983   10.3745 C.3         1 MOL       0.1170
      2 C2         23.3472  -35.3534   11.5820 C.3         1 MOL       0.1229
      3 C3         21.8460  -35.4740   11.9656 C.3         1 MOL       0.1499
      4 O4         21.1095  -34.7390   10.9716 O.3         1 MOL      -0.3460
      5 C5         21.9807  -33.7006   10.4902 C.3         1 MOL       0.1063
      6 C6         21.4997  -33.1600    9.2255 C.2         1 MOL      -0.0658
      7 S7         21.2844  -37.2019   12.0155 S.3         1 MOL      -0.0558
      8 O8         24.4429  -33.4786   10.3554 O.3         1 MOL      -0.3847
      9 O9         24.1134  -34.8607   12.6822 O.3         1 MOL      -0.3853
     10 C10        21.3556  -31.8468    8.9824 C.2         1 MOL      -0.0744
     11 C11        19.9569  -37.1037   13.1453 C.ar        1 MOL       0.0383
     12 C12        20.8634  -31.2880    7.7342 C.3         1 MOL       0.0473
     13 N13        21.7441  -30.2910    7.2092 N.am        1 MOL      -0.2765
     14 C14        22.9691  -30.4883    6.7218 C.2         1 MOL       0.2411
     15 C15        23.7522  -29.4374    6.2245 C.ar        1 MOL       0.2482
     16 C16        23.6475  -28.1032    6.6989 C.ar        1 MOL       0.3921
     17 C17        24.4743  -27.0875    6.1793 C.ar        1 MOL       0.3797
     18 C18        25.3845  -27.3762    5.1503 C.ar        1 MOL       0.1691
     19 C19        25.5106  -28.6824    4.6211 C.ar        1 MOL       0.2168
     20 C20        24.6920  -29.6914    5.1885 C.ar        1 MOL       0.1162
     21 N21        26.3802  -28.9448    3.6005 N.2         1 MOL      -0.1404
     22 O22        22.7656  -27.7396    7.6643 O.3         1 MOL      -0.1763
     23 O23        24.3926  -25.8231    6.6708 O.3         1 MOL      -0.1825
     24 O24        23.4079  -31.6341    6.6746 O.2         1 MOL      -0.3823
     25 O25        27.1305  -28.0218    3.0625 O.2         1 MOL      -0.4541
     26 O26        26.5037  -30.0435    3.1165 O.2         1 MOL      -0.4541
     27 C27        20.1820  -36.8317   14.5113 C.ar        1 MOL      -0.0217
     28 C28        19.0972  -36.8534   15.4083 C.ar        1 MOL       0.0039
     29 N29        17.8552  -37.1591   14.9542 N.ar        1 MOL      -0.3066
     30 C30        17.6049  -37.4502   13.6518 C.ar        1 MOL       0.0039
     31 C31        18.6545  -37.4325   12.7159 C.ar        1 MOL      -0.0217
     32 H1         23.3947  -34.9907    9.4555 H           1 MOL       0.0667
     33 H2         23.7797  -36.3126   11.2874 H           1 MOL       0.0659
     34 H3         21.6665  -34.9982   12.9365 H           1 MOL       0.0771
     35 H4         22.0344  -32.9131   11.2518 H           1 MOL       0.0748
     36 H5         21.2784  -33.8115    8.5051 H           1 MOL       0.0477
     37 H6         24.3808  -32.9652   11.1878 H           1 MOL       0.2102
     38 H7         23.7132  -33.9959   12.9112 H           1 MOL       0.2101
     39 H8         21.5882  -31.1964    9.7003 H           1 MOL       0.0470
     40 H9         19.9007  -30.8111    7.9381 H           1 MOL       0.0643
     41 H10        20.6916  -32.0588    6.9718 H           1 MOL       0.0643
     42 H11        21.3958  -29.3890    7.1652 H           1 MOL       0.1867
     43 H12        25.9608  -26.6167    4.7745 H           1 MOL       0.1086
     44 H13        24.7620  -30.6403    4.8120 H           1 MOL       0.1563
     45 H14        23.1310  -28.1131    8.4999 H           1 MOL       0.3540
     46 H15        25.2504  -25.3978    6.4720 H           1 MOL       0.3497
     47 H16        21.1250  -36.6307   14.8602 H           1 MOL       0.0660
     48 H17        19.2342  -36.6512   16.3985 H           1 MOL       0.0803
     49 H18        16.6538  -37.6839   13.3594 H           1 MOL       0.0803
     50 H19        18.4659  -37.6631   11.7373 H           1 MOL       0.0660
@<TRIPOS>BOND
     1     1     2   1
     2     1     5   1
     3     1     8   1
     4     2     3   1
     5     2     9   1
     6     3     4   1
     7     3     7   1
     8     4     5   1
     9     5     6   1
    10     6    10   2
    11     7    11   1
    12    10    12   1
    13    11    27  ar
    14    11    31  ar
    15    12    13   1
    16    13    14  am
    17    14    15   1
    18    14    24   2
    19    15    16  ar
    20    15    20  ar
    21    16    17  ar
    22    16    22   1
    23    17    18  ar
    24    17    23   1
    25    18    19  ar
    26    19    20  ar
    27    19    21   1
    28    21    25   2
    29    21    26   2
    30    27    28  ar
    31    28    29  ar
    32    29    30  ar
    33    30    31  ar
    34     1    32   1
    35     2    33   1
    36     3    34   1
    37     5    35   1
    38     6    36   1
    39     8    37   1
    40     9    38   1
    41    10    39   1
    42    12    40   1
    43    12    41   1
    44    13    42   1
    45    18    43   1
    46    20    44   1
    47    22    45   1
    48    23    46   1
    49    27    47   1
    50    28    48   1
    51    30    49   1
    52    31    50   1
@<TRIPOS>SUBSTRUCTURE
     1  MOL      1

