@<TRIPOS>MOLECULE
3oe5_ligand_001
    50    52
SMALL
GAST_HUCK
****
This file was generated by PARSER (from files_GN.cpp)

@<TRIPOS>ATOM
      1 C1         20.6144  -30.0037   12.8627 C.3         1 MOL       0.1170
      2 C2         19.4462  -31.0077   12.9523 C.3         1 MOL       0.1229
      3 C3         18.1868  -30.1364   12.7293 C.3         1 MOL       0.1499
      4 O4         18.6592  -28.8820   12.2244 O.3         1 MOL      -0.3460
      5 C5         19.9254  -28.6166   12.8518 C.3         1 MOL       0.1063
      6 C6         20.5694  -27.5094   12.1527 C.2         1 MOL      -0.0658
      7 S7         17.0484  -30.8454   11.5034 S.3         1 MOL      -0.0558
      8 O8         21.5516  -30.1145   13.9324 O.3         1 MOL      -0.3847
      9 O9         19.3895  -31.7185   14.1931 O.3         1 MOL      -0.3853
     10 C10        21.8473  -27.4646   11.7280 C.2         1 MOL      -0.0744
     11 C11        15.5327  -30.7084   12.3528 C.ar        1 MOL       0.0383
     12 C12        22.3802  -26.4087   10.8874 C.3         1 MOL       0.0473
     13 N13        22.9816  -26.8975    9.6830 N.am        1 MOL      -0.2765
     14 C14        22.4021  -27.6185    8.7269 C.2         1 MOL       0.2411
     15 C15        23.1117  -28.0000    7.5819 C.ar        1 MOL       0.2482
     16 C16        24.0746  -27.1572    6.9649 C.ar        1 MOL       0.3921
     17 C17        24.7574  -27.5791    5.8037 C.ar        1 MOL       0.3797
     18 C18        24.4972  -28.8467    5.2565 C.ar        1 MOL       0.1691
     19 C19        23.5590  -29.7263    5.8459 C.ar        1 MOL       0.2168
     20 C20        22.8738  -29.2753    7.0014 C.ar        1 MOL       0.1162
     21 N21        23.3291  -30.9630    5.3114 N.2         1 MOL      -0.1404
     22 O22        24.2820  -25.8885    7.4025 O.3         1 MOL      -0.1763
     23 O23        25.6451  -26.7802    5.1559 O.3         1 MOL      -0.1825
     24 O24        21.2506  -28.0089    8.8742 O.2         1 MOL      -0.3823
     25 O25        23.9573  -31.3968    4.2495 O.2         1 MOL      -0.4541
     26 O26        22.5444  -31.7412    5.7878 O.2         1 MOL      -0.4541
     27 C27        14.7383  -31.8610   12.5189 C.ar        1 MOL      -0.0217
     28 C28        13.4871  -31.7464   13.1536 C.ar        1 MOL       0.0039
     29 N29        13.0599  -30.5366   13.5903 N.ar        1 MOL      -0.3066
     30 C30        13.7982  -29.4061   13.4498 C.ar        1 MOL       0.0039
     31 C31        15.0550  -29.4640   12.8242 C.ar        1 MOL      -0.0217
     32 H1         21.1391  -30.1681   11.9175 H           1 MOL       0.0667
     33 H2         19.5534  -31.7641   12.1673 H           1 MOL       0.0659
     34 H3         17.6802  -29.9584   13.6868 H           1 MOL       0.0771
     35 H4         19.7401  -28.2951   13.8838 H           1 MOL       0.0748
     36 H5         19.9945  -26.7114   11.9885 H           1 MOL       0.0477
     37 H6         21.9900  -30.9836   13.8058 H           1 MOL       0.2102
     38 H7         19.1453  -31.0608   14.8805 H           1 MOL       0.2101
     39 H8         22.4690  -28.2024   11.9608 H           1 MOL       0.0470
     40 H9         23.1536  -25.8861   11.4524 H           1 MOL       0.0643
     41 H10        21.6158  -25.6708   10.6245 H           1 MOL       0.0643
     42 H11        23.9073  -26.6546    9.5444 H           1 MOL       0.1867
     43 H12        25.0047  -29.1235    4.4131 H           1 MOL       0.1086
     44 H13        22.1966  -29.9023    7.4426 H           1 MOL       0.1563
     45 H14        25.2515  -25.7826    7.5041 H           1 MOL       0.3540
     46 H15        25.9341  -26.0961    5.7955 H           1 MOL       0.3497
     47 H16        15.0556  -32.7745   12.1809 H           1 MOL       0.0660
     48 H17        12.8993  -32.5713   13.2859 H           1 MOL       0.0803
     49 H18        13.4358  -28.5164   13.7972 H           1 MOL       0.0803
     50 H19        15.6107  -28.6135   12.7145 H           1 MOL       0.0660
@<TRIPOS>BOND
     1     1     2   1
     2     1     5   1
     3     1     8   1
     4     2     3   1
     5     2     9   1
     6     3     4   1
     7     3     7   1
     8     4     5   1
     9     5     6   1
    10     6    10   2
    11     7    11   1
    12    10    12   1
    13    11    27  ar
    14    11    31  ar
    15    12    13   1
    16    13    14  am
    17    14    15   1
    18    14    24   2
    19    15    16  ar
    20    15    20  ar
    21    16    17  ar
    22    16    22   1
    23    17    18  ar
    24    17    23   1
    25    18    19  ar
    26    19    20  ar
    27    19    21   1
    28    21    25   2
    29    21    26   2
    30    27    28  ar
    31    28    29  ar
    32    29    30  ar
    33    30    31  ar
    34     1    32   1
    35     2    33   1
    36     3    34   1
    37     5    35   1
    38     6    36   1
    39     8    37   1
    40     9    38   1
    41    10    39   1
    42    12    40   1
    43    12    41   1
    44    13    42   1
    45    18    43   1
    46    20    44   1
    47    22    45   1
    48    23    46   1
    49    27    47   1
    50    28    48   1
    51    30    49   1
    52    31    50   1
@<TRIPOS>SUBSTRUCTURE
     1  MOL      1

