@<TRIPOS>MOLECULE
3oe5_ligand_054
    50    52
SMALL
GAST_HUCK
****
This file was generated by PARSER (from files_GN.cpp)

@<TRIPOS>ATOM
      1 C1         18.8542  -33.6918    3.9256 C.3         1 MOL       0.1170
      2 C2         19.0109  -34.4011    2.5584 C.3         1 MOL       0.1229
      3 C3         20.3118  -33.7881    1.9696 C.3         1 MOL       0.1499
      4 O4         20.8917  -32.9998    3.0167 O.3         1 MOL      -0.3460
      5 C5         19.7948  -32.4764    3.7742 C.3         1 MOL       0.1063
      6 C6         20.3132  -31.7806    4.9464 C.2         1 MOL      -0.0658
      7 S7         21.4942  -35.0446    1.4080 S.3         1 MOL      -0.0558
      8 O8         17.5067  -33.3049    4.2121 O.3         1 MOL      -0.3847
      9 O9         17.8963  -34.1684    1.6969 O.3         1 MOL      -0.3853
     10 C10        19.8920  -31.9270    6.2170 C.2         1 MOL      -0.0744
     11 C11        22.7044  -34.0046    0.7060 C.ar        1 MOL       0.0383
     12 C12        20.4095  -31.2105    7.3842 C.3         1 MOL       0.0473
     13 N13        21.4625  -30.2712    7.1589 N.am        1 MOL      -0.2765
     14 C14        22.7429  -30.5518    6.9431 C.2         1 MOL       0.2411
     15 C15        23.6759  -29.5631    6.5786 C.ar        1 MOL       0.2482
     16 C16        23.5336  -28.2012    6.9493 C.ar        1 MOL       0.3921
     17 C17        24.4938  -27.2447    6.5652 C.ar        1 MOL       0.3797
     18 C18        25.5866  -27.6228    5.7639 C.ar        1 MOL       0.1691
     19 C19        25.7628  -28.9617    5.3472 C.ar        1 MOL       0.2168
     20 C20        24.8057  -29.9130    5.7831 C.ar        1 MOL       0.1162
     21 N21        26.8214  -29.3058    4.5578 N.2         1 MOL      -0.1404
     22 O22        22.5088  -27.7538    7.7142 O.3         1 MOL      -0.1763
     23 O23        24.3717  -25.9534    6.9705 O.3         1 MOL      -0.1825
     24 O24        23.1085  -31.7204    6.9912 O.2         1 MOL      -0.3823
     25 O25        27.7000  -28.4270    4.1377 O.2         1 MOL      -0.4541
     26 O26        27.0147  -30.4324    4.1782 O.2         1 MOL      -0.4541
     27 C27        22.4546  -33.3183   -0.4997 C.ar        1 MOL      -0.0217
     28 C28        23.4877  -32.5653   -1.0907 C.ar        1 MOL       0.0039
     29 N29        24.7102  -32.5169   -0.5022 N.ar        1 MOL      -0.3066
     30 C30        24.9893  -33.1725    0.6523 C.ar        1 MOL       0.0039
     31 C31        23.9898  -33.9309    1.2875 C.ar        1 MOL      -0.0217
     32 H1         19.2165  -34.3654    4.7065 H           1 MOL       0.0667
     33 H2         19.0952  -35.4809    2.7132 H           1 MOL       0.0659
     34 H3         20.0617  -33.1281    1.1334 H           1 MOL       0.0771
     35 H4         19.2870  -31.7174    3.1696 H           1 MOL       0.0748
     36 H5         21.0111  -31.1030    4.7620 H           1 MOL       0.0477
     37 H6         17.4001  -33.4439    5.1767 H           1 MOL       0.2102
     38 H7         17.7392  -33.1996    1.7358 H           1 MOL       0.2101
     39 H8         19.1296  -32.5345    6.3981 H           1 MOL       0.0470
     40 H9         20.7343  -31.9481    8.1235 H           1 MOL       0.0643
     41 H10        19.5733  -30.6668    7.8200 H           1 MOL       0.0643
     42 H11        21.2045  -29.3409    7.1187 H           1 MOL       0.1867
     43 H12        26.2552  -26.9021    5.4820 H           1 MOL       0.1086
     44 H13        24.9219  -30.8850    5.4859 H           1 MOL       0.1563
     45 H14        22.7769  -27.9407    8.6335 H           1 MOL       0.3540
     46 H15        25.2932  -25.6104    7.0140 H           1 MOL       0.3497
     47 H16        21.5438  -33.3739   -0.9599 H           1 MOL       0.0660
     48 H17        23.3241  -32.0611   -1.9649 H           1 MOL       0.0803
     49 H18        25.9293  -33.1181    1.0479 H           1 MOL       0.0803
     50 H19        24.2090  -34.4384    2.1504 H           1 MOL       0.0660
@<TRIPOS>BOND
     1     1     2   1
     2     1     5   1
     3     1     8   1
     4     2     3   1
     5     2     9   1
     6     3     4   1
     7     3     7   1
     8     4     5   1
     9     5     6   1
    10     6    10   2
    11     7    11   1
    12    10    12   1
    13    11    27  ar
    14    11    31  ar
    15    12    13   1
    16    13    14  am
    17    14    15   1
    18    14    24   2
    19    15    16  ar
    20    15    20  ar
    21    16    17  ar
    22    16    22   1
    23    17    18  ar
    24    17    23   1
    25    18    19  ar
    26    19    20  ar
    27    19    21   1
    28    21    25   2
    29    21    26   2
    30    27    28  ar
    31    28    29  ar
    32    29    30  ar
    33    30    31  ar
    34     1    32   1
    35     2    33   1
    36     3    34   1
    37     5    35   1
    38     6    36   1
    39     8    37   1
    40     9    38   1
    41    10    39   1
    42    12    40   1
    43    12    41   1
    44    13    42   1
    45    18    43   1
    46    20    44   1
    47    22    45   1
    48    23    46   1
    49    27    47   1
    50    28    48   1
    51    30    49   1
    52    31    50   1
@<TRIPOS>SUBSTRUCTURE
     1  MOL      1

