@<TRIPOS>MOLECULE
3oe5_ligand_072
    50    52
SMALL
GAST_HUCK
****
This file was generated by PARSER (from files_GN.cpp)

@<TRIPOS>ATOM
      1 C1         26.7520  -26.9744    4.5706 C.3         1 MOL       0.1170
      2 C2         26.6312  -28.1196    3.5464 C.3         1 MOL       0.1229
      3 C3         27.1394  -29.3104    4.3776 C.3         1 MOL       0.1499
      4 O4         26.7849  -29.0436    5.7412 O.3         1 MOL      -0.3460
      5 C5         26.2859  -27.7007    5.8607 C.3         1 MOL       0.1063
      6 C6         24.8387  -27.7443    6.0645 C.2         1 MOL      -0.0658
      7 S7         26.4746  -30.8936    3.7927 S.3         1 MOL      -0.0558
      8 O8         28.0921  -26.5019    4.7452 O.3         1 MOL      -0.3847
      9 O9         27.3586  -27.9716    2.3286 O.3         1 MOL      -0.3853
     10 C10        24.2487  -28.5928    6.9254 C.2         1 MOL      -0.0744
     11 C11        26.6270  -31.8539    5.2422 C.ar        1 MOL       0.0383
     12 C12        22.8365  -28.5639    7.2516 C.3         1 MOL       0.0473
     13 N13        22.6040  -28.0310    8.5631 N.am        1 MOL      -0.2765
     14 C14        22.8365  -26.7855    8.9746 C.2         1 MOL       0.2411
     15 C15        22.5224  -26.3097   10.2634 C.ar        1 MOL       0.2482
     16 C16        21.6270  -26.9691   11.1455 C.ar        1 MOL       0.3921
     17 C17        21.2960  -26.4078   12.3917 C.ar        1 MOL       0.3797
     18 C18        21.8551  -25.1834   12.7900 C.ar        1 MOL       0.1691
     19 C19        22.7549  -24.4810   11.9582 C.ar        1 MOL       0.2168
     20 C20        23.0766  -25.0710   10.7104 C.ar        1 MOL       0.1162
     21 N21        23.2584  -23.2645   12.3293 N.2         1 MOL      -0.1404
     22 O22        20.9878  -28.1194   10.8134 O.3         1 MOL      -0.1763
     23 O23        20.4190  -27.0119   13.2316 O.3         1 MOL      -0.1825
     24 O24        23.3018  -25.9961    8.1609 O.2         1 MOL      -0.3823
     25 O25        22.9240  -22.6902   13.4554 O.2         1 MOL      -0.4541
     26 O26        24.0173  -22.6268   11.6548 O.2         1 MOL      -0.4541
     27 C27        27.8422  -31.9562    5.9553 C.ar        1 MOL      -0.0217
     28 C28        27.8774  -32.7030    7.1448 C.ar        1 MOL       0.0039
     29 N29        26.7576  -33.3357    7.5797 N.ar        1 MOL      -0.3066
     30 C30        25.5796  -33.2814    6.9078 C.ar        1 MOL       0.0039
     31 C31        25.4864  -32.5340    5.7215 C.ar        1 MOL      -0.0217
     32 H1         26.1266  -26.1167    4.3172 H           1 MOL       0.0667
     33 H2         25.5767  -28.2667    3.2959 H           1 MOL       0.0659
     34 H3         28.2281  -29.3568    4.3266 H           1 MOL       0.0771
     35 H4         26.7383  -27.2592    6.7530 H           1 MOL       0.0748
     36 H5         24.2791  -27.0612    5.6097 H           1 MOL       0.0477
     37 H6         28.6308  -26.8891    4.0233 H           1 MOL       0.2102
     38 H7         26.7711  -27.4791    1.7234 H           1 MOL       0.2101
     39 H8         24.8097  -29.2515    7.4175 H           1 MOL       0.0470
     40 H9         22.4624  -29.5876    7.2239 H           1 MOL       0.0643
     41 H10        22.2658  -27.9935    6.5197 H           1 MOL       0.0643
     42 H11        22.2284  -28.6481    9.2052 H           1 MOL       0.1867
     43 H12        21.5886  -24.7950   13.6958 H           1 MOL       0.1086
     44 H13        23.7246  -24.5680   10.0996 H           1 MOL       0.1563
     45 H14        20.2037  -27.8091   10.3079 H           1 MOL       0.3540
     46 H15        19.7208  -27.3832   12.6481 H           1 MOL       0.3497
     47 H16        28.6882  -31.4815    5.6322 H           1 MOL       0.0660
     48 H17        28.7445  -32.7777    7.6810 H           1 MOL       0.0803
     49 H18        24.7715  -33.7894    7.2630 H           1 MOL       0.0803
     50 H19        24.5946  -32.4847    5.2206 H           1 MOL       0.0660
@<TRIPOS>BOND
     1     1     2   1
     2     1     5   1
     3     1     8   1
     4     2     3   1
     5     2     9   1
     6     3     4   1
     7     3     7   1
     8     4     5   1
     9     5     6   1
    10     6    10   2
    11     7    11   1
    12    10    12   1
    13    11    27  ar
    14    11    31  ar
    15    12    13   1
    16    13    14  am
    17    14    15   1
    18    14    24   2
    19    15    16  ar
    20    15    20  ar
    21    16    17  ar
    22    16    22   1
    23    17    18  ar
    24    17    23   1
    25    18    19  ar
    26    19    20  ar
    27    19    21   1
    28    21    25   2
    29    21    26   2
    30    27    28  ar
    31    28    29  ar
    32    29    30  ar
    33    30    31  ar
    34     1    32   1
    35     2    33   1
    36     3    34   1
    37     5    35   1
    38     6    36   1
    39     8    37   1
    40     9    38   1
    41    10    39   1
    42    12    40   1
    43    12    41   1
    44    13    42   1
    45    18    43   1
    46    20    44   1
    47    22    45   1
    48    23    46   1
    49    27    47   1
    50    28    48   1
    51    30    49   1
    52    31    50   1
@<TRIPOS>SUBSTRUCTURE
     1  MOL      1

