@<TRIPOS>MOLECULE
3oe5_ligand_053
    50    52
SMALL
GAST_HUCK
****
This file was generated by PARSER (from files_GN.cpp)

@<TRIPOS>ATOM
      1 C1         24.0076  -27.1598    5.9960 C.3         1 MOL       0.1170
      2 C2         25.0748  -27.3273    4.9008 C.3         1 MOL       0.1229
      3 C3         26.0074  -28.4381    5.4466 C.3         1 MOL       0.1499
      4 O4         25.3986  -28.9913    6.6310 O.3         1 MOL      -0.3460
      5 C5         24.0445  -28.5132    6.7407 C.3         1 MOL       0.1063
      6 C6         23.1019  -29.5030    6.2284 C.2         1 MOL      -0.0658
      7 S7         26.2691  -29.7964    4.2657 S.3         1 MOL      -0.0558
      8 O8         24.2907  -26.0859    6.8894 O.3         1 MOL      -0.3847
      9 O9         25.7889  -26.1283    4.6047 O.3         1 MOL      -0.3853
     10 C10        21.8460  -29.6193    6.7015 C.2         1 MOL      -0.0744
     11 C11        28.0099  -29.7964    4.1474 C.ar        1 MOL       0.0383
     12 C12        20.8757  -30.5608    6.1840 C.3         1 MOL       0.0473
     13 N13        21.1219  -31.8975    6.6362 N.am        1 MOL      -0.2765
     14 C14        20.2743  -32.9059    6.4960 C.2         1 MOL       0.2411
     15 C15        20.6206  -34.1670    6.9678 C.ar        1 MOL       0.2482
     16 C16        20.8057  -35.2487    6.0732 C.ar        1 MOL       0.3921
     17 C17        21.1938  -36.5115    6.5560 C.ar        1 MOL       0.3797
     18 C18        21.3580  -36.7170    7.9383 C.ar        1 MOL       0.1691
     19 C19        21.1440  -35.6728    8.8731 C.ar        1 MOL       0.2168
     20 C20        20.7967  -34.3940    8.3587 C.ar        1 MOL       0.1162
     21 N21        21.2833  -35.9044   10.2116 N.2         1 MOL      -0.1404
     22 O22        20.6819  -35.0766    4.7294 O.3         1 MOL      -0.1763
     23 O23        21.4083  -37.5432    5.7056 O.3         1 MOL      -0.1825
     24 O24        19.2172  -32.7701    5.8868 O.2         1 MOL      -0.3823
     25 O25        21.6823  -37.0542   10.6864 O.2         1 MOL      -0.4541
     26 O26        21.0589  -35.0624   11.0427 O.2         1 MOL      -0.4541
     27 C27        28.6809  -28.7418    3.4900 C.ar        1 MOL      -0.0217
     28 C28        30.0812  -28.7803    3.3849 C.ar        1 MOL       0.0039
     29 N29        30.7706  -29.8275    3.9027 N.ar        1 MOL      -0.3066
     30 C30        30.1615  -30.8708    4.5229 C.ar        1 MOL       0.0039
     31 C31        28.7576  -30.8852    4.6471 C.ar        1 MOL      -0.0217
     32 H1         23.0285  -26.9631    5.5581 H           1 MOL       0.0667
     33 H2         24.5774  -27.6482    3.9830 H           1 MOL       0.0659
     34 H3         26.9591  -28.0024    5.7544 H           1 MOL       0.0771
     35 H4         23.8493  -28.3618    7.8033 H           1 MOL       0.0748
     36 H5         23.3912  -30.0979    5.4824 H           1 MOL       0.0477
     37 H6         25.2574  -26.1131    7.0765 H           1 MOL       0.2102
     38 H7         26.0467  -25.7502    5.4732 H           1 MOL       0.2101
     39 H8         21.5538  -29.0010    7.4255 H           1 MOL       0.0470
     40 H9         20.8838  -30.5271    5.0893 H           1 MOL       0.0643
     41 H10        19.8778  -30.2637    6.5238 H           1 MOL       0.0643
     42 H11        21.9776  -32.0838    7.0590 H           1 MOL       0.1867
     43 H12        21.6320  -37.6505    8.2572 H           1 MOL       0.1086
     44 H13        20.6506  -33.6164    9.0104 H           1 MOL       0.1563
     45 H14        19.7513  -35.3262    4.5386 H           1 MOL       0.3540
     46 H15        22.3386  -37.4231    5.4131 H           1 MOL       0.3497
     47 H16        28.1581  -27.9580    3.0956 H           1 MOL       0.0660
     48 H17        30.5830  -28.0229    2.9195 H           1 MOL       0.0803
     49 H18        30.7242  -31.6403    4.8857 H           1 MOL       0.0803
     50 H19        28.2989  -31.6817    5.1025 H           1 MOL       0.0660
@<TRIPOS>BOND
     1     1     2   1
     2     1     5   1
     3     1     8   1
     4     2     3   1
     5     2     9   1
     6     3     4   1
     7     3     7   1
     8     4     5   1
     9     5     6   1
    10     6    10   2
    11     7    11   1
    12    10    12   1
    13    11    27  ar
    14    11    31  ar
    15    12    13   1
    16    13    14  am
    17    14    15   1
    18    14    24   2
    19    15    16  ar
    20    15    20  ar
    21    16    17  ar
    22    16    22   1
    23    17    18  ar
    24    17    23   1
    25    18    19  ar
    26    19    20  ar
    27    19    21   1
    28    21    25   2
    29    21    26   2
    30    27    28  ar
    31    28    29  ar
    32    29    30  ar
    33    30    31  ar
    34     1    32   1
    35     2    33   1
    36     3    34   1
    37     5    35   1
    38     6    36   1
    39     8    37   1
    40     9    38   1
    41    10    39   1
    42    12    40   1
    43    12    41   1
    44    13    42   1
    45    18    43   1
    46    20    44   1
    47    22    45   1
    48    23    46   1
    49    27    47   1
    50    28    48   1
    51    30    49   1
    52    31    50   1
@<TRIPOS>SUBSTRUCTURE
     1  MOL      1

