@<TRIPOS>MOLECULE
3oe5_ligand_060
    50    52
SMALL
GAST_HUCK
****
This file was generated by PARSER (from files_GN.cpp)

@<TRIPOS>ATOM
      1 C1         13.6939  -30.0536   13.9305 C.3         1 MOL       0.1170
      2 C2         15.0119  -29.7040   13.2230 C.3         1 MOL       0.1229
      3 C3         15.6646  -31.0909   13.0155 C.3         1 MOL       0.1499
      4 O4         14.6513  -32.0950   13.1535 O.3         1 MOL      -0.3460
      5 C5         13.3853  -31.4678   13.3867 C.3         1 MOL       0.1063
      6 C6         12.6329  -31.5116   12.1340 C.2         1 MOL      -0.0658
      7 S7         16.4300  -31.2906   11.3836 S.3         1 MOL      -0.0558
      8 O8         13.8904  -30.0787   15.3437 O.3         1 MOL      -0.3847
      9 O9         15.8831  -28.8460   13.9713 O.3         1 MOL      -0.3853
     10 C10        11.5575  -32.2933   11.9373 C.2         1 MOL      -0.0744
     11 C11        18.0805  -31.6734   11.7984 C.ar        1 MOL       0.0383
     12 C12        10.9134  -32.4783   10.6485 C.3         1 MOL       0.0473
     13 N13        11.2565  -33.7471   10.0745 N.am        1 MOL      -0.2765
     14 C14        10.8715  -34.9553   10.4814 C.2         1 MOL       0.2411
     15 C15        11.2887  -36.1269    9.8269 C.ar        1 MOL       0.2482
     16 C16        10.5996  -37.3634    9.9752 C.ar        1 MOL       0.3921
     17 C17        11.0812  -38.5349    9.3633 C.ar        1 MOL       0.3797
     18 C18        12.2401  -38.4973    8.5717 C.ar        1 MOL       0.1691
     19 C19        12.9475  -37.2900    8.3693 C.ar        1 MOL       0.2168
     20 C20        12.4474  -36.1251    9.0039 C.ar        1 MOL       0.1162
     21 N21        14.0764  -37.2621    7.6000 N.2         1 MOL      -0.1404
     22 O22         9.4402  -37.4782   10.6758 O.3         1 MOL      -0.1763
     23 O23        10.4275  -39.7130    9.5197 O.3         1 MOL      -0.1825
     24 O24        10.1494  -35.0291   11.4672 O.2         1 MOL      -0.3823
     25 O25        14.5415  -38.3249    6.9995 O.2         1 MOL      -0.4541
     26 O26        14.7213  -36.2612    7.4269 O.2         1 MOL      -0.4541
     27 C27        19.1165  -30.9876   11.1299 C.ar        1 MOL      -0.0217
     28 C28        20.4555  -31.2810   11.4483 C.ar        1 MOL       0.0039
     29 N29        20.7391  -32.2212   12.3862 N.ar        1 MOL      -0.3066
     30 C30        19.7680  -32.9189   13.0313 C.ar        1 MOL       0.0039
     31 C31        18.4135  -32.6774   12.7335 C.ar        1 MOL      -0.0217
     32 H1         12.9019  -29.3386   13.6991 H           1 MOL       0.0667
     33 H2         14.7819  -29.2131   12.2700 H           1 MOL       0.0659
     34 H3         16.3851  -31.2611   13.8166 H           1 MOL       0.0771
     35 H4         12.8656  -32.0467   14.1614 H           1 MOL       0.0748
     36 H5         13.0032  -30.9964   11.3614 H           1 MOL       0.0477
     37 H6         13.0387  -30.3638   15.7350 H           1 MOL       0.2102
     38 H7         15.3269  -28.1161   14.3173 H           1 MOL       0.2101
     39 H8         11.2216  -32.8341   12.6910 H           1 MOL       0.0470
     40 H9         11.2182  -31.7022    9.9399 H           1 MOL       0.0643
     41 H10         9.8281  -32.3963   10.7596 H           1 MOL       0.0643
     42 H11        11.8240  -33.7137    9.2887 H           1 MOL       0.1867
     43 H12        12.5623  -39.3669    8.1405 H           1 MOL       0.1086
     44 H13        12.9626  -35.2528    8.8690 H           1 MOL       0.1563
     45 H14         8.8977  -36.7030   10.4024 H           1 MOL       0.3540
     46 H15         9.8303  -39.7715    8.7447 H           1 MOL       0.3497
     47 H16        18.9076  -30.2801   10.4197 H           1 MOL       0.0660
     48 H17        21.2178  -30.7917   10.9779 H           1 MOL       0.0803
     49 H18        20.0307  -33.6202   13.7291 H           1 MOL       0.0803
     50 H19        17.6923  -33.2289   13.2002 H           1 MOL       0.0660
@<TRIPOS>BOND
     1     1     2   1
     2     1     5   1
     3     1     8   1
     4     2     3   1
     5     2     9   1
     6     3     4   1
     7     3     7   1
     8     4     5   1
     9     5     6   1
    10     6    10   2
    11     7    11   1
    12    10    12   1
    13    11    27  ar
    14    11    31  ar
    15    12    13   1
    16    13    14  am
    17    14    15   1
    18    14    24   2
    19    15    16  ar
    20    15    20  ar
    21    16    17  ar
    22    16    22   1
    23    17    18  ar
    24    17    23   1
    25    18    19  ar
    26    19    20  ar
    27    19    21   1
    28    21    25   2
    29    21    26   2
    30    27    28  ar
    31    28    29  ar
    32    29    30  ar
    33    30    31  ar
    34     1    32   1
    35     2    33   1
    36     3    34   1
    37     5    35   1
    38     6    36   1
    39     8    37   1
    40     9    38   1
    41    10    39   1
    42    12    40   1
    43    12    41   1
    44    13    42   1
    45    18    43   1
    46    20    44   1
    47    22    45   1
    48    23    46   1
    49    27    47   1
    50    28    48   1
    51    30    49   1
    52    31    50   1
@<TRIPOS>SUBSTRUCTURE
     1  MOL      1

