@<TRIPOS>MOLECULE
3oe5_ligand_013
    50    52
SMALL
GAST_HUCK
****
This file was generated by PARSER (from files_GN.cpp)

@<TRIPOS>ATOM
      1 C1         17.5192  -30.4576   11.5806 C.3         1 MOL       0.1170
      2 C2         16.0176  -30.7035   11.8099 C.3         1 MOL       0.1229
      3 C3         15.9740  -30.9305   13.3351 C.3         1 MOL       0.1499
      4 O4         17.1811  -31.6573   13.6310 O.3         1 MOL      -0.3460
      5 C5         18.1831  -31.3913   12.6169 C.3         1 MOL       0.1063
      6 C6         19.4111  -30.8652   13.2049 C.2         1 MOL      -0.0658
      7 S7         15.9849  -29.3851   14.3079 S.3         1 MOL      -0.0558
      8 O8         17.9213  -30.7166   10.2435 O.3         1 MOL      -0.3847
      9 O9         15.5206  -31.8279   11.0944 O.3         1 MOL      -0.3853
     10 C10        20.4694  -30.4804   12.4624 C.2         1 MOL      -0.0744
     11 C11        14.3302  -28.8831   14.0882 C.ar        1 MOL       0.0383
     12 C12        21.6696  -29.8540   12.9863 C.3         1 MOL       0.0473
     13 N13        22.0227  -28.6820   12.2424 N.am        1 MOL      -0.2765
     14 C14        21.4610  -27.4786   12.3216 C.2         1 MOL       0.2411
     15 C15        22.0863  -26.4033   11.6898 C.ar        1 MOL       0.2482
     16 C16        22.5039  -26.4812   10.3360 C.ar        1 MOL       0.3921
     17 C17        23.2435  -25.4347    9.7499 C.ar        1 MOL       0.3797
     18 C18        23.5471  -24.2905   10.5062 C.ar        1 MOL       0.1691
     19 C19        23.1260  -24.1572   11.8495 C.ar        1 MOL       0.2168
     20 C20        22.3816  -25.2245   12.4143 C.ar        1 MOL       0.1162
     21 N21        23.4214  -23.0384   12.5798 N.2         1 MOL      -0.1404
     22 O22        22.1106  -27.5158    9.5430 O.3         1 MOL      -0.1763
     23 O23        23.6345  -25.5072    8.4540 O.3         1 MOL      -0.1825
     24 O24        20.5293  -27.2749   13.0850 O.2         1 MOL      -0.3823
     25 O25        24.1354  -22.0548   12.0953 O.2         1 MOL      -0.4541
     26 O26        23.0632  -22.8820   13.7160 O.2         1 MOL      -0.4541
     27 C27        13.3563  -29.2595   15.0358 C.ar        1 MOL      -0.0217
     28 C28        12.0357  -28.8018   14.8826 C.ar        1 MOL       0.0039
     29 N29        11.7075  -28.0243   13.8209 N.ar        1 MOL      -0.3066
     30 C30        12.6164  -27.6377   12.8903 C.ar        1 MOL       0.0039
     31 C31        13.9598  -28.0377   13.0185 C.ar        1 MOL      -0.0217
     32 H1         17.7359  -29.4042   11.8050 H           1 MOL       0.0667
     33 H2         15.4193  -29.8310   11.5000 H           1 MOL       0.0659
     34 H3         15.1181  -31.5210   13.6248 H           1 MOL       0.0771
     35 H4         18.4084  -32.3507   12.1435 H           1 MOL       0.0748
     36 H5         19.4531  -30.7644   14.1939 H           1 MOL       0.0477
     37 H6         18.7710  -30.2319   10.1333 H           1 MOL       0.2102
     38 H7         15.5966  -32.5981   11.7112 H           1 MOL       0.2101
     39 H8         20.4492  -30.6489   11.4833 H           1 MOL       0.0470
     40 H9         22.4956  -30.5637   12.8836 H           1 MOL       0.0643
     41 H10        21.5919  -29.6078   14.0535 H           1 MOL       0.0643
     42 H11        22.8119  -28.7549   11.6853 H           1 MOL       0.1867
     43 H12        24.0700  -23.5397   10.0543 H           1 MOL       0.1086
     44 H13        22.0735  -25.1553   13.3849 H           1 MOL       0.1563
     45 H14        21.1544  -27.3473    9.4120 H           1 MOL       0.3540
     46 H15        24.0519  -26.3953    8.3511 H           1 MOL       0.3497
     47 H16        13.5996  -29.8399   15.8396 H           1 MOL       0.0660
     48 H17        11.3188  -29.0520   15.5648 H           1 MOL       0.0803
     49 H18        12.3233  -27.0549   12.1059 H           1 MOL       0.0803
     50 H19        14.6508  -27.7091   12.3338 H           1 MOL       0.0660
@<TRIPOS>BOND
     1     1     2   1
     2     1     5   1
     3     1     8   1
     4     2     3   1
     5     2     9   1
     6     3     4   1
     7     3     7   1
     8     4     5   1
     9     5     6   1
    10     6    10   2
    11     7    11   1
    12    10    12   1
    13    11    27  ar
    14    11    31  ar
    15    12    13   1
    16    13    14  am
    17    14    15   1
    18    14    24   2
    19    15    16  ar
    20    15    20  ar
    21    16    17  ar
    22    16    22   1
    23    17    18  ar
    24    17    23   1
    25    18    19  ar
    26    19    20  ar
    27    19    21   1
    28    21    25   2
    29    21    26   2
    30    27    28  ar
    31    28    29  ar
    32    29    30  ar
    33    30    31  ar
    34     1    32   1
    35     2    33   1
    36     3    34   1
    37     5    35   1
    38     6    36   1
    39     8    37   1
    40     9    38   1
    41    10    39   1
    42    12    40   1
    43    12    41   1
    44    13    42   1
    45    18    43   1
    46    20    44   1
    47    22    45   1
    48    23    46   1
    49    27    47   1
    50    28    48   1
    51    30    49   1
    52    31    50   1
@<TRIPOS>SUBSTRUCTURE
     1  MOL      1

