@<TRIPOS>MOLECULE
3oe5_ligand_051
    50    52
SMALL
GAST_HUCK
****
This file was generated by PARSER (from files_GN.cpp)

@<TRIPOS>ATOM
      1 C1         16.9416  -30.1977   12.3851 C.3         1 MOL       0.1170
      2 C2         17.6997  -30.2970   13.7183 C.3         1 MOL       0.1229
      3 C3         18.2228  -31.7516   13.7008 C.3         1 MOL       0.1499
      4 O4         18.3200  -32.1728   12.3221 O.3         1 MOL      -0.3460
      5 C5         17.7031  -31.1903   11.4710 C.3         1 MOL       0.1063
      6 C6         18.7006  -30.5840   10.5999 C.2         1 MOL      -0.0658
      7 S7         19.8339  -31.9342   14.5190 S.3         1 MOL      -0.0558
      8 O8         15.5763  -30.6016   12.5337 O.3         1 MOL      -0.3847
      9 O9         16.8702  -30.0216   14.8505 O.3         1 MOL      -0.3853
     10 C10        19.7992  -29.9452   11.0338 C.2         1 MOL      -0.0744
     11 C11        19.9827  -33.6636   14.3945 C.ar        1 MOL       0.0383
     12 C12        20.7602  -29.2851   10.1686 C.3         1 MOL       0.0473
     13 N13        20.8944  -27.9094   10.5284 N.am        1 MOL      -0.2765
     14 C14        21.4347  -27.4208   11.6360 C.2         1 MOL       0.2411
     15 C15        21.4391  -26.0479   11.8808 C.ar        1 MOL       0.2482
     16 C16        20.2735  -25.2437   11.7390 C.ar        1 MOL       0.3921
     17 C17        20.3261  -23.8586   12.0056 C.ar        1 MOL       0.3797
     18 C18        21.5258  -23.2744   12.4592 C.ar        1 MOL       0.1691
     19 C19        22.7005  -24.0411   12.6231 C.ar        1 MOL       0.2168
     20 C20        22.6315  -25.4208   12.3081 C.ar        1 MOL       0.1162
     21 N21        23.8539  -23.4733   13.0764 N.2         1 MOL      -0.1404
     22 O22        19.0781  -25.8210   11.4212 O.3         1 MOL      -0.1763
     23 O23        19.2172  -23.0891   11.8293 O.3         1 MOL      -0.1825
     24 O24        21.9697  -28.1802   12.4365 O.2         1 MOL      -0.3823
     25 O25        23.9234  -22.2174   13.4238 O.2         1 MOL      -0.4541
     26 O26        24.8666  -24.1004   13.2416 O.2         1 MOL      -0.4541
     27 C27        21.0504  -34.2075   13.6484 C.ar        1 MOL      -0.0217
     28 C28        21.1822  -35.6032   13.5579 C.ar        1 MOL       0.0039
     29 N29        20.2882  -36.4095   14.1840 N.ar        1 MOL      -0.3066
     30 C30        19.2463  -35.9209   14.9093 C.ar        1 MOL       0.0039
     31 C31        19.0710  -34.5301   15.0332 C.ar        1 MOL      -0.0217
     32 H1         16.9589  -29.1753   12.0091 H           1 MOL       0.0667
     33 H2         18.5344  -29.5839   13.7008 H           1 MOL       0.0659
     34 H3         17.5007  -32.4039   14.1971 H           1 MOL       0.0771
     35 H4         16.9754  -31.7220   10.8463 H           1 MOL       0.0748
     36 H5         18.5544  -30.6660    9.6169 H           1 MOL       0.0477
     37 H6         15.1445  -29.8893   13.0587 H           1 MOL       0.2102
     38 H7         16.5552  -29.1003   14.7318 H           1 MOL       0.2101
     39 H8         19.9726  -29.9256   12.0165 H           1 MOL       0.0470
     40 H9         20.4433  -29.3161    9.1154 H           1 MOL       0.0643
     41 H10        21.7214  -29.8011   10.2347 H           1 MOL       0.0643
     42 H11        20.5737  -27.2601    9.8852 H           1 MOL       0.1867
     43 H12        21.5258  -22.2752   12.6672 H           1 MOL       0.1086
     44 H13        23.4861  -25.9813   12.3948 H           1 MOL       0.1563
     45 H14        18.4147  -25.1051   11.2990 H           1 MOL       0.3540
     46 H15        19.2524  -22.3743   12.5025 H           1 MOL       0.3497
     47 H16        21.7260  -33.6007   13.1767 H           1 MOL       0.0660
     48 H17        21.9512  -36.0168   13.0266 H           1 MOL       0.0803
     49 H18        18.6038  -36.5680   15.3656 H           1 MOL       0.0803
     50 H19        18.2924  -34.1583   15.5848 H           1 MOL       0.0660
@<TRIPOS>BOND
     1     1     2   1
     2     1     5   1
     3     1     8   1
     4     2     3   1
     5     2     9   1
     6     3     4   1
     7     3     7   1
     8     4     5   1
     9     5     6   1
    10     6    10   2
    11     7    11   1
    12    10    12   1
    13    11    27  ar
    14    11    31  ar
    15    12    13   1
    16    13    14  am
    17    14    15   1
    18    14    24   2
    19    15    16  ar
    20    15    20  ar
    21    16    17  ar
    22    16    22   1
    23    17    18  ar
    24    17    23   1
    25    18    19  ar
    26    19    20  ar
    27    19    21   1
    28    21    25   2
    29    21    26   2
    30    27    28  ar
    31    28    29  ar
    32    29    30  ar
    33    30    31  ar
    34     1    32   1
    35     2    33   1
    36     3    34   1
    37     5    35   1
    38     6    36   1
    39     8    37   1
    40     9    38   1
    41    10    39   1
    42    12    40   1
    43    12    41   1
    44    13    42   1
    45    18    43   1
    46    20    44   1
    47    22    45   1
    48    23    46   1
    49    27    47   1
    50    28    48   1
    51    30    49   1
    52    31    50   1
@<TRIPOS>SUBSTRUCTURE
     1  MOL      1

