@<TRIPOS>MOLECULE
3oe5_ligand_014
    50    52
SMALL
GAST_HUCK
****
This file was generated by PARSER (from files_GN.cpp)

@<TRIPOS>ATOM
      1 C1         20.3299  -31.1032   13.4508 C.3         1 MOL       0.1170
      2 C2         18.9860  -31.8335   13.2914 C.3         1 MOL       0.1229
      3 C3         17.9934  -30.6701   13.0413 C.3         1 MOL       0.1499
      4 O4         18.7660  -29.4770   12.8129 O.3         1 MOL      -0.3460
      5 C5         20.1342  -29.8419   12.5807 C.3         1 MOL       0.1063
      6 C6         20.3770  -30.0067   11.1497 C.2         1 MOL      -0.0658
      7 S7         16.9551  -30.9414   11.5745 S.3         1 MOL      -0.0558
      8 O8         20.5666  -30.7301   14.8111 O.3         1 MOL      -0.3847
      9 O9         18.6391  -32.6509   14.4104 O.3         1 MOL      -0.3853
     10 C10        20.4911  -28.9582   10.3142 C.2         1 MOL      -0.0744
     11 C11        15.3816  -30.9544   12.3152 C.ar        1 MOL       0.0383
     12 C12        20.6941  -29.0475    8.8762 C.3         1 MOL       0.0473
     13 N13        20.3589  -30.3214    8.3056 N.am        1 MOL      -0.2765
     14 C14        21.1964  -31.1761    7.7386 C.2         1 MOL       0.2411
     15 C15        20.7392  -32.4317    7.4018 C.ar        1 MOL       0.2482
     16 C16        19.9438  -32.6544    6.2513 C.ar        1 MOL       0.3921
     17 C17        19.4858  -33.9549    5.9638 C.ar        1 MOL       0.3797
     18 C18        19.8177  -35.0287    6.8094 C.ar        1 MOL       0.1691
     19 C19        20.6130  -34.8368    7.9653 C.ar        1 MOL       0.2168
     20 C20        21.0615  -33.5216    8.2420 C.ar        1 MOL       0.1162
     21 N21        20.9364  -35.8813    8.7825 N.2         1 MOL      -0.1404
     22 O22        19.6078  -31.6517    5.3937 O.3         1 MOL      -0.1763
     23 O23        18.7374  -34.1905    4.8602 O.3         1 MOL      -0.1825
     24 O24        22.3963  -30.9548    7.6441 O.2         1 MOL      -0.3823
     25 O25        20.5591  -37.1059    8.5349 O.2         1 MOL      -0.4541
     26 O26        21.5976  -35.7438    9.7789 O.2         1 MOL      -0.4541
     27 C27        14.7050  -32.1766   12.5035 C.ar        1 MOL      -0.0217
     28 C28        13.3923  -32.1594   13.0095 C.ar        1 MOL       0.0039
     29 N29        12.7974  -30.9755   13.3073 N.ar        1 MOL      -0.3066
     30 C30        13.4250  -29.7823   13.1476 C.ar        1 MOL       0.0039
     31 C31        14.7398  -29.7430   12.6490 C.ar        1 MOL      -0.0217
     32 H1         21.1708  -31.7150   13.1133 H           1 MOL       0.0667
     33 H2         19.0494  -32.4910   12.4190 H           1 MOL       0.0659
     34 H3         17.3863  -30.4930   13.9328 H           1 MOL       0.0771
     35 H4         20.7864  -29.0442   12.9509 H           1 MOL       0.0748
     36 H5         20.4452  -30.9287   10.7831 H           1 MOL       0.0477
     37 H6         19.8101  -30.1624   15.0724 H           1 MOL       0.2102
     38 H7         18.6424  -32.0543   15.1872 H           1 MOL       0.2101
     39 H8         20.4848  -28.0434   10.7084 H           1 MOL       0.0470
     40 H9         21.7243  -28.7539    8.6596 H           1 MOL       0.0643
     41 H10        20.0474  -28.3137    8.3954 H           1 MOL       0.0643
     42 H11        19.4360  -30.6091    8.3978 H           1 MOL       0.1867
     43 H12        19.4708  -35.9598    6.5690 H           1 MOL       0.1086
     44 H13        21.6255  -33.3510    9.0807 H           1 MOL       0.1563
     45 H14        20.4441  -31.1982    5.1586 H           1 MOL       0.3540
     46 H15        17.8132  -34.1869    5.1871 H           1 MOL       0.3497
     47 H16        15.1495  -33.0667   12.2668 H           1 MOL       0.0660
     48 H17        12.8759  -33.0306   13.1392 H           1 MOL       0.0803
     49 H18        12.9331  -28.9182   13.3783 H           1 MOL       0.0803
     50 H19        15.2078  -28.8421   12.5239 H           1 MOL       0.0660
@<TRIPOS>BOND
     1     1     2   1
     2     1     5   1
     3     1     8   1
     4     2     3   1
     5     2     9   1
     6     3     4   1
     7     3     7   1
     8     4     5   1
     9     5     6   1
    10     6    10   2
    11     7    11   1
    12    10    12   1
    13    11    27  ar
    14    11    31  ar
    15    12    13   1
    16    13    14  am
    17    14    15   1
    18    14    24   2
    19    15    16  ar
    20    15    20  ar
    21    16    17  ar
    22    16    22   1
    23    17    18  ar
    24    17    23   1
    25    18    19  ar
    26    19    20  ar
    27    19    21   1
    28    21    25   2
    29    21    26   2
    30    27    28  ar
    31    28    29  ar
    32    29    30  ar
    33    30    31  ar
    34     1    32   1
    35     2    33   1
    36     3    34   1
    37     5    35   1
    38     6    36   1
    39     8    37   1
    40     9    38   1
    41    10    39   1
    42    12    40   1
    43    12    41   1
    44    13    42   1
    45    18    43   1
    46    20    44   1
    47    22    45   1
    48    23    46   1
    49    27    47   1
    50    28    48   1
    51    30    49   1
    52    31    50   1
@<TRIPOS>SUBSTRUCTURE
     1  MOL      1

