@<TRIPOS>MOLECULE
3oe5_ligand_005
    50    52
SMALL
GAST_HUCK
****
This file was generated by PARSER (from files_GN.cpp)

@<TRIPOS>ATOM
      1 C1         20.1748  -28.6405   11.4091 C.3         1 MOL       0.1170
      2 C2         20.8279  -29.1595   12.7076 C.3         1 MOL       0.1229
      3 C3         20.3794  -30.6313   12.7490 C.3         1 MOL       0.1499
      4 O4         20.3230  -31.0208   11.3718 O.3         1 MOL      -0.3460
      5 C5         19.7102  -29.9284   10.6648 C.3         1 MOL       0.1063
      6 C6         20.0035  -29.9178    9.2366 C.2         1 MOL      -0.0658
      7 S7         21.5350  -31.6708   13.6783 S.3         1 MOL      -0.0558
      8 O8         19.0610  -27.7826   11.6592 O.3         1 MOL      -0.3847
      9 O9         20.4644  -28.4353   13.8872 O.3         1 MOL      -0.3853
     10 C10        20.2899  -31.0048    8.4976 C.2         1 MOL      -0.0744
     11 C11        20.5621  -33.1155   13.7654 C.ar        1 MOL       0.0383
     12 C12        20.4865  -30.9618    7.0589 C.3         1 MOL       0.0473
     13 N13        21.5307  -30.0417    6.7229 N.am        1 MOL      -0.2765
     14 C14        22.6353  -30.2520    6.0123 C.2         1 MOL       0.2411
     15 C15        23.5871  -29.2392    5.7833 C.ar        1 MOL       0.2482
     16 C16        23.5558  -27.9819    6.4484 C.ar        1 MOL       0.3921
     17 C17        24.5380  -27.0050    6.1980 C.ar        1 MOL       0.3797
     18 C18        25.5650  -27.2530    5.2705 C.ar        1 MOL       0.1691
     19 C19        25.6492  -28.4849    4.5816 C.ar        1 MOL       0.2168
     20 C20        24.6511  -29.4561    4.8614 C.ar        1 MOL       0.1162
     21 N21        26.6539  -28.7118    3.6824 N.2         1 MOL      -0.1404
     22 O22        22.6144  -27.6673    7.3735 O.3         1 MOL      -0.1763
     23 O23        24.4741  -25.8222    6.8595 O.3         1 MOL      -0.1825
     24 O24        22.8048  -31.3608    5.5158 O.2         1 MOL      -0.3823
     25 O25        27.5706  -27.8189    3.4099 O.2         1 MOL      -0.4541
     26 O26        26.7575  -29.7453    3.0736 O.2         1 MOL      -0.4541
     27 C27        19.5616  -33.2568   14.7515 C.ar        1 MOL      -0.0217
     28 C28        18.8227  -34.4535   14.8082 C.ar        1 MOL       0.0039
     29 N29        19.0816  -35.4543   13.9269 N.ar        1 MOL      -0.3066
     30 C30        20.0453  -35.3563   12.9733 C.ar        1 MOL       0.0039
     31 C31        20.8068  -34.1770   12.8677 C.ar        1 MOL      -0.0217
     32 H1         20.9214  -28.0759   10.8364 H           1 MOL       0.0667
     33 H2         21.9190  -29.0933   12.5990 H           1 MOL       0.0659
     34 H3         19.3835  -30.7059   13.1994 H           1 MOL       0.0771
     35 H4         18.6228  -30.0462   10.7590 H           1 MOL       0.0748
     36 H5         19.8969  -29.0464    8.7685 H           1 MOL       0.0477
     37 H6         19.4549  -26.9311   11.9446 H           1 MOL       0.2102
     38 H7         19.6793  -28.8832   14.2699 H           1 MOL       0.2101
     39 H8         20.3532  -31.8906    8.9443 H           1 MOL       0.0470
     40 H9         19.5679  -30.6269    6.5708 H           1 MOL       0.0643
     41 H10        20.6858  -31.9738    6.6990 H           1 MOL       0.0643
     42 H11        21.4019  -29.1449    7.0551 H           1 MOL       0.1867
     43 H12        26.2603  -26.5191    5.1036 H           1 MOL       0.1086
     44 H13        24.6974  -30.3453    4.3580 H           1 MOL       0.1563
     45 H14        22.9971  -27.9577    8.2290 H           1 MOL       0.3540
     46 H15        25.3982  -25.5628    7.0495 H           1 MOL       0.3497
     47 H16        19.3716  -32.5076   15.4245 H           1 MOL       0.0660
     48 H17        18.0856  -34.5756   15.5041 H           1 MOL       0.0803
     49 H18        20.2091  -36.1357   12.3314 H           1 MOL       0.0803
     50 H19        21.5354  -34.1037   12.1521 H           1 MOL       0.0660
@<TRIPOS>BOND
     1     1     2   1
     2     1     5   1
     3     1     8   1
     4     2     3   1
     5     2     9   1
     6     3     4   1
     7     3     7   1
     8     4     5   1
     9     5     6   1
    10     6    10   2
    11     7    11   1
    12    10    12   1
    13    11    27  ar
    14    11    31  ar
    15    12    13   1
    16    13    14  am
    17    14    15   1
    18    14    24   2
    19    15    16  ar
    20    15    20  ar
    21    16    17  ar
    22    16    22   1
    23    17    18  ar
    24    17    23   1
    25    18    19  ar
    26    19    20  ar
    27    19    21   1
    28    21    25   2
    29    21    26   2
    30    27    28  ar
    31    28    29  ar
    32    29    30  ar
    33    30    31  ar
    34     1    32   1
    35     2    33   1
    36     3    34   1
    37     5    35   1
    38     6    36   1
    39     8    37   1
    40     9    38   1
    41    10    39   1
    42    12    40   1
    43    12    41   1
    44    13    42   1
    45    18    43   1
    46    20    44   1
    47    22    45   1
    48    23    46   1
    49    27    47   1
    50    28    48   1
    51    30    49   1
    52    31    50   1
@<TRIPOS>SUBSTRUCTURE
     1  MOL      1

