@<TRIPOS>MOLECULE
3oe5_ligand_059
    50    52
SMALL
GAST_HUCK
****
This file was generated by PARSER (from files_GN.cpp)

@<TRIPOS>ATOM
      1 C1         14.0403  -29.8047   13.3869 C.3         1 MOL       0.1170
      2 C2         15.5673  -29.5613   13.3904 C.3         1 MOL       0.1229
      3 C3         16.1772  -30.9125   12.9389 C.3         1 MOL       0.1499
      4 O4         15.0903  -31.7071   12.4546 O.3         1 MOL      -0.3460
      5 C5         13.9366  -31.3419   13.2250 C.3         1 MOL       0.1063
      6 C6         12.7240  -31.8463   12.5974 C.2         1 MOL      -0.0658
      7 S7         17.4135  -30.7908   11.6219 S.3         1 MOL      -0.0558
      8 O8         13.4056  -29.3318   14.5799 O.3         1 MOL      -0.3847
      9 O9         16.0603  -29.2255   14.6848 O.3         1 MOL      -0.3853
     10 C10        12.3731  -31.5916   11.3272 C.2         1 MOL      -0.0744
     11 C11        18.6950  -30.0923   12.5759 C.ar        1 MOL       0.0383
     12 C12        11.1911  -32.1576   10.7058 C.3         1 MOL       0.0473
     13 N13        11.4257  -33.5033   10.2845 N.am        1 MOL      -0.2765
     14 C14        10.9270  -34.6089   10.8225 C.2         1 MOL       0.2411
     15 C15        11.2663  -35.8387   10.2875 C.ar        1 MOL       0.2482
     16 C16        10.8675  -36.2173    8.9810 C.ar        1 MOL       0.3921
     17 C17        11.2532  -37.4689    8.4623 C.ar        1 MOL       0.3797
     18 C18        12.0524  -38.3388    9.2284 C.ar        1 MOL       0.1691
     19 C19        12.4751  -37.9865   10.5321 C.ar        1 MOL       0.2168
     20 C20        12.0539  -36.7351   11.0483 C.ar        1 MOL       0.1162
     21 N21        13.2673  -38.8262   11.2602 N.2         1 MOL      -0.1404
     22 O22        10.0806  -35.4229    8.2083 O.3         1 MOL      -0.1763
     23 O23        10.8620  -37.8555    7.2221 O.3         1 MOL      -0.1825
     24 O24        10.2574  -34.5826   11.8490 O.2         1 MOL      -0.3823
     25 O25        13.6659  -39.9868   10.8072 O.2         1 MOL      -0.4541
     26 O26        13.6573  -38.5567   12.3677 O.2         1 MOL      -0.4541
     27 C27        19.4367  -30.8901   13.4726 C.ar        1 MOL      -0.0217
     28 C28        20.4763  -30.3019   14.2128 C.ar        1 MOL       0.0039
     29 N29        20.7587  -28.9842   14.0574 N.ar        1 MOL      -0.3066
     30 C30        20.0685  -28.1859   13.2004 C.ar        1 MOL       0.0039
     31 C31        19.0212  -28.7283   12.4312 C.ar        1 MOL      -0.0217
     32 H1         13.5973  -29.2873   12.5297 H           1 MOL       0.0667
     33 H2         15.8190  -28.7464   12.7044 H           1 MOL       0.0659
     34 H3         16.6158  -31.4415   13.7869 H           1 MOL       0.0771
     35 H4         14.0279  -31.8005   14.2176 H           1 MOL       0.0748
     36 H5         12.1432  -32.4442   13.1451 H           1 MOL       0.0477
     37 H6         12.5045  -29.0566   14.3072 H           1 MOL       0.2102
     38 H7         15.8511  -28.2732   14.7994 H           1 MOL       0.2101
     39 H8         12.9464  -30.9887   10.7817 H           1 MOL       0.0470
     40 H9         10.9515  -31.5787    9.8180 H           1 MOL       0.0643
     41 H10        10.3349  -32.0729   11.3795 H           1 MOL       0.0643
     42 H11        12.0402  -33.6241    9.5391 H           1 MOL       0.1867
     43 H12        12.3175  -39.2404    8.8207 H           1 MOL       0.1086
     44 H13        12.3512  -36.4529   11.9858 H           1 MOL       0.1563
     45 H14         9.3287  -35.1644    8.7842 H           1 MOL       0.3540
     46 H15         9.9437  -38.1768    7.3448 H           1 MOL       0.3497
     47 H16        19.2273  -31.8853   13.5920 H           1 MOL       0.0660
     48 H17        21.0270  -30.8607   14.8695 H           1 MOL       0.0803
     49 H18        20.3158  -27.1984   13.1225 H           1 MOL       0.0803
     50 H19        18.5100  -28.1297   11.7779 H           1 MOL       0.0660
@<TRIPOS>BOND
     1     1     2   1
     2     1     5   1
     3     1     8   1
     4     2     3   1
     5     2     9   1
     6     3     4   1
     7     3     7   1
     8     4     5   1
     9     5     6   1
    10     6    10   2
    11     7    11   1
    12    10    12   1
    13    11    27  ar
    14    11    31  ar
    15    12    13   1
    16    13    14  am
    17    14    15   1
    18    14    24   2
    19    15    16  ar
    20    15    20  ar
    21    16    17  ar
    22    16    22   1
    23    17    18  ar
    24    17    23   1
    25    18    19  ar
    26    19    20  ar
    27    19    21   1
    28    21    25   2
    29    21    26   2
    30    27    28  ar
    31    28    29  ar
    32    29    30  ar
    33    30    31  ar
    34     1    32   1
    35     2    33   1
    36     3    34   1
    37     5    35   1
    38     6    36   1
    39     8    37   1
    40     9    38   1
    41    10    39   1
    42    12    40   1
    43    12    41   1
    44    13    42   1
    45    18    43   1
    46    20    44   1
    47    22    45   1
    48    23    46   1
    49    27    47   1
    50    28    48   1
    51    30    49   1
    52    31    50   1
@<TRIPOS>SUBSTRUCTURE
     1  MOL      1

