@<TRIPOS>MOLECULE
3oe5_ligand_075
    50    52
SMALL
GAST_HUCK
****
This file was generated by PARSER (from files_GN.cpp)

@<TRIPOS>ATOM
      1 C1         22.6475  -32.8294   12.5032 C.3         1 MOL       0.1170
      2 C2         23.0815  -34.3040   12.3495 C.3         1 MOL       0.1229
      3 C3         21.7442  -35.0723   12.2036 C.3         1 MOL       0.1499
      4 O4         20.7225  -34.0885   11.9952 O.3         1 MOL      -0.3460
      5 C5         21.1147  -32.9047   12.6998 C.3         1 MOL       0.1063
      6 C6         20.3844  -31.7444   12.2002 C.2         1 MOL      -0.0658
      7 S7         21.7657  -36.2254   10.8029 S.3         1 MOL      -0.0558
      8 O8         23.2991  -32.1434   13.5728 O.3         1 MOL      -0.3847
      9 O9         23.8407  -34.7723   13.4658 O.3         1 MOL      -0.3853
     10 C10        20.5705  -30.5053   12.6697 C.2         1 MOL      -0.0744
     11 C11        20.4546  -37.2540   11.3015 C.ar        1 MOL       0.0383
     12 C12        19.8699  -29.3285   12.1867 C.3         1 MOL       0.0473
     13 N13        20.7946  -28.3276   11.7382 N.am        1 MOL      -0.2765
     14 C14        20.9824  -27.1054   12.2333 C.2         1 MOL       0.2411
     15 C15        21.8753  -26.1670   11.6704 C.ar        1 MOL       0.2482
     16 C16        22.3769  -26.2567   10.3394 C.ar        1 MOL       0.3921
     17 C17        23.2632  -25.2878    9.8331 C.ar        1 MOL       0.3797
     18 C18        23.6416  -24.1935   10.6218 C.ar        1 MOL       0.1691
     19 C19        23.1582  -24.0342   11.9402 C.ar        1 MOL       0.2168
     20 C20        22.2860  -25.0365   12.4364 C.ar        1 MOL       0.1162
     21 N21        23.5089  -22.9521   12.6923 N.2         1 MOL      -0.1404
     22 O22        21.9957  -27.2140    9.4627 O.3         1 MOL      -0.1763
     23 O23        23.7523  -25.3785    8.5679 O.3         1 MOL      -0.1825
     24 O24        20.3585  -26.8053   13.2449 O.2         1 MOL      -0.3823
     25 O25        24.3247  -22.0289   12.2639 O.2         1 MOL      -0.4541
     26 O26        23.0775  -22.7604   13.8014 O.2         1 MOL      -0.4541
     27 C27        20.6699  -38.2381   12.2899 C.ar        1 MOL      -0.0217
     28 C28        19.6086  -39.0791   12.6651 C.ar        1 MOL       0.0039
     29 N29        18.4006  -38.9487   12.0601 N.ar        1 MOL      -0.3066
     30 C30        18.1626  -38.0249   11.0935 C.ar        1 MOL       0.0039
     31 C31        19.1895  -37.1525   10.6879 C.ar        1 MOL      -0.0217
     32 H1         22.8737  -32.2936   11.5741 H           1 MOL       0.0667
     33 H2         23.7107  -34.3884   11.4578 H           1 MOL       0.0659
     34 H3         21.5331  -35.6069   13.1358 H           1 MOL       0.0771
     35 H4         20.8720  -33.0355   13.7608 H           1 MOL       0.0748
     36 H5         19.7037  -31.8895   11.4912 H           1 MOL       0.0477
     37 H6         23.0868  -32.6530   14.3823 H           1 MOL       0.2102
     38 H7         24.1017  -35.6862   13.2247 H           1 MOL       0.2101
     39 H8         21.2265  -30.3482   13.3980 H           1 MOL       0.0470
     40 H9         19.2383  -28.9626   12.9929 H           1 MOL       0.0643
     41 H10        19.2146  -29.5532   11.3437 H           1 MOL       0.0643
     42 H11        21.3404  -28.5838   10.9861 H           1 MOL       0.1867
     43 H12        24.2627  -23.4909   10.2112 H           1 MOL       0.1086
     44 H13        21.9440  -24.9249   13.3971 H           1 MOL       0.1563
     45 H14        21.0260  -27.0783    9.3923 H           1 MOL       0.3540
     46 H15        24.3508  -26.1557    8.5902 H           1 MOL       0.3497
     47 H16        21.5829  -38.3430   12.7384 H           1 MOL       0.0660
     48 H17        19.7414  -39.7911   13.3837 H           1 MOL       0.0803
     49 H18        17.2358  -37.9698   10.6662 H           1 MOL       0.0803
     50 H19        19.0110  -36.4628    9.9565 H           1 MOL       0.0660
@<TRIPOS>BOND
     1     1     2   1
     2     1     5   1
     3     1     8   1
     4     2     3   1
     5     2     9   1
     6     3     4   1
     7     3     7   1
     8     4     5   1
     9     5     6   1
    10     6    10   2
    11     7    11   1
    12    10    12   1
    13    11    27  ar
    14    11    31  ar
    15    12    13   1
    16    13    14  am
    17    14    15   1
    18    14    24   2
    19    15    16  ar
    20    15    20  ar
    21    16    17  ar
    22    16    22   1
    23    17    18  ar
    24    17    23   1
    25    18    19  ar
    26    19    20  ar
    27    19    21   1
    28    21    25   2
    29    21    26   2
    30    27    28  ar
    31    28    29  ar
    32    29    30  ar
    33    30    31  ar
    34     1    32   1
    35     2    33   1
    36     3    34   1
    37     5    35   1
    38     6    36   1
    39     8    37   1
    40     9    38   1
    41    10    39   1
    42    12    40   1
    43    12    41   1
    44    13    42   1
    45    18    43   1
    46    20    44   1
    47    22    45   1
    48    23    46   1
    49    27    47   1
    50    28    48   1
    51    30    49   1
    52    31    50   1
@<TRIPOS>SUBSTRUCTURE
     1  MOL      1

