@<TRIPOS>MOLECULE
3oe5_ligand_045
    50    52
SMALL
GAST_HUCK
****
This file was generated by PARSER (from files_GN.cpp)

@<TRIPOS>ATOM
      1 C1         22.8197  -32.5659   12.2523 C.3         1 MOL       0.1170
      2 C2         23.0738  -34.0834   12.1867 C.3         1 MOL       0.1229
      3 C3         21.6590  -34.6980   12.0567 C.3         1 MOL       0.1499
      4 O4         20.7702  -33.6108   11.7946 O.3         1 MOL      -0.3460
      5 C5         21.2960  -32.4621   12.4827 C.3         1 MOL       0.1063
      6 C6         20.7257  -31.2028   12.0107 C.2         1 MOL      -0.0658
      7 S7         21.5167  -35.8668   10.6740 S.3         1 MOL      -0.0558
      8 O8         23.5534  -31.8896   13.2718 O.3         1 MOL      -0.3847
      9 O9         23.7393  -34.5888   13.3443 O.3         1 MOL      -0.3853
     10 C10        19.4339  -31.0363   11.6629 C.2         1 MOL      -0.0744
     11 C11        20.6262  -37.1453   11.4559 C.ar        1 MOL       0.0383
     12 C12        18.9083  -29.8134   11.0680 C.3         1 MOL       0.0473
     13 N13        19.7866  -29.1939   10.1192 N.am        1 MOL      -0.2765
     14 C14        20.5663  -29.8144    9.2262 C.2         1 MOL       0.2411
     15 C15        21.5233  -29.1485    8.4309 C.ar        1 MOL       0.2482
     16 C16        22.1375  -27.9133    8.8056 C.ar        1 MOL       0.3921
     17 C17        23.0671  -27.2742    7.9534 C.ar        1 MOL       0.3797
     18 C18        23.4408  -27.8614    6.7386 C.ar        1 MOL       0.1691
     19 C19        22.9062  -29.1041    6.3393 C.ar        1 MOL       0.2168
     20 C20        21.9380  -29.7067    7.1880 C.ar        1 MOL       0.1162
     21 N21        23.3356  -29.7061    5.1869 N.2         1 MOL      -0.1404
     22 O22        21.9201  -27.3152    9.9989 O.3         1 MOL      -0.1763
     23 O23        23.5776  -26.0527    8.2536 O.3         1 MOL      -0.1825
     24 O24        20.4394  -31.0361    9.1157 O.2         1 MOL      -0.3823
     25 O25        24.2785  -29.1945    4.4414 O.2         1 MOL      -0.4541
     26 O26        22.9130  -30.7613    4.7977 O.2         1 MOL      -0.4541
     27 C27        20.9802  -38.4889   11.2077 C.ar        1 MOL      -0.0217
     28 C28        20.2439  -39.5161   11.8268 C.ar        1 MOL       0.0039
     29 N29        19.2052  -39.2051   12.6446 N.ar        1 MOL      -0.3066
     30 C30        18.8339  -37.9238   12.8979 C.ar        1 MOL       0.0039
     31 C31        19.5340  -36.8609   12.2990 C.ar        1 MOL      -0.0217
     32 H1         23.0719  -32.1165   11.2858 H           1 MOL       0.0667
     33 H2         23.6977  -34.3021   11.3174 H           1 MOL       0.0659
     34 H3         21.3519  -35.1589   13.0027 H           1 MOL       0.0771
     35 H4         21.0715  -32.5533   13.5549 H           1 MOL       0.0748
     36 H5         21.3292  -30.4078   11.9803 H           1 MOL       0.0477
     37 H6         24.4971  -32.0411   13.0506 H           1 MOL       0.2102
     38 H7         23.9658  -35.5165   13.1247 H           1 MOL       0.2101
     39 H8         18.8034  -31.8032   11.7550 H           1 MOL       0.0470
     40 H9         18.7171  -29.0996   11.8686 H           1 MOL       0.0643
     41 H10        17.9585  -30.0286   10.5711 H           1 MOL       0.0643
     42 H11        19.8268  -28.2208   10.1411 H           1 MOL       0.1867
     43 H12        24.1150  -27.3680    6.1413 H           1 MOL       0.1086
     44 H13        21.5303  -30.5962    6.8779 H           1 MOL       0.1563
     45 H14        21.1338  -26.7456    9.8577 H           1 MOL       0.3540
     46 H15        24.0990  -26.1595    9.0804 H           1 MOL       0.3497
     47 H16        21.7589  -38.7254   10.5886 H           1 MOL       0.0660
     48 H17        20.4853  -40.4951   11.6672 H           1 MOL       0.0803
     49 H18        18.0436  -37.7384   13.5180 H           1 MOL       0.0803
     50 H19        19.2542  -35.8943   12.4872 H           1 MOL       0.0660
@<TRIPOS>BOND
     1     1     2   1
     2     1     5   1
     3     1     8   1
     4     2     3   1
     5     2     9   1
     6     3     4   1
     7     3     7   1
     8     4     5   1
     9     5     6   1
    10     6    10   2
    11     7    11   1
    12    10    12   1
    13    11    27  ar
    14    11    31  ar
    15    12    13   1
    16    13    14  am
    17    14    15   1
    18    14    24   2
    19    15    16  ar
    20    15    20  ar
    21    16    17  ar
    22    16    22   1
    23    17    18  ar
    24    17    23   1
    25    18    19  ar
    26    19    20  ar
    27    19    21   1
    28    21    25   2
    29    21    26   2
    30    27    28  ar
    31    28    29  ar
    32    29    30  ar
    33    30    31  ar
    34     1    32   1
    35     2    33   1
    36     3    34   1
    37     5    35   1
    38     6    36   1
    39     8    37   1
    40     9    38   1
    41    10    39   1
    42    12    40   1
    43    12    41   1
    44    13    42   1
    45    18    43   1
    46    20    44   1
    47    22    45   1
    48    23    46   1
    49    27    47   1
    50    28    48   1
    51    30    49   1
    52    31    50   1
@<TRIPOS>SUBSTRUCTURE
     1  MOL      1

