@<TRIPOS>MOLECULE
3oe5_ligand_046
    50    52
SMALL
GAST_HUCK
****
This file was generated by PARSER (from files_GN.cpp)

@<TRIPOS>ATOM
      1 C1         17.1123  -30.0059   12.2875 C.3         1 MOL       0.1170
      2 C2         17.6400  -30.2457   13.7134 C.3         1 MOL       0.1229
      3 C3         17.9435  -31.7688   13.7207 C.3         1 MOL       0.1499
      4 O4         17.7069  -32.2536   12.3873 O.3         1 MOL      -0.3460
      5 C5         17.7873  -31.1365   11.4858 C.3         1 MOL       0.1063
      6 C6         19.1702  -30.9230   11.0736 C.2         1 MOL      -0.0658
      7 S7         19.6348  -32.1346   14.2781 S.3         1 MOL      -0.0558
      8 O8         15.6867  -30.1298   12.2301 O.3         1 MOL      -0.3847
      9 O9         16.7054  -29.8706   14.7305 O.3         1 MOL      -0.3853
     10 C10        19.7010  -29.7241   10.7591 C.2         1 MOL      -0.0744
     11 C11        19.6261  -33.8550   14.0050 C.ar        1 MOL       0.0383
     12 C12        21.0429  -29.5731   10.2399 C.3         1 MOL       0.0473
     13 N13        21.5907  -28.2876   10.5650 N.am        1 MOL      -0.2765
     14 C14        21.9635  -27.3458    9.7019 C.2         1 MOL       0.2411
     15 C15        22.5659  -26.1504   10.1118 C.ar        1 MOL       0.2482
     16 C16        23.3762  -25.3858    9.2232 C.ar        1 MOL       0.3921
     17 C17        23.8532  -24.1124    9.5846 C.ar        1 MOL       0.3797
     18 C18        23.6006  -23.6141   10.8750 C.ar        1 MOL       0.1691
     19 C19        22.8586  -24.3541   11.8214 C.ar        1 MOL       0.2168
     20 C20        22.3536  -25.6215   11.4159 C.ar        1 MOL       0.1162
     21 N21        22.6085  -23.8395   13.0597 N.2         1 MOL      -0.1404
     22 O22        23.7240  -25.8362    7.9926 O.3         1 MOL      -0.1763
     23 O23        24.5383  -23.3544    8.7018 O.3         1 MOL      -0.1825
     24 O24        21.7155  -27.5090    8.5105 O.2         1 MOL      -0.3823
     25 O25        23.0187  -22.6583   13.4345 O.2         1 MOL      -0.4541
     26 O26        21.9866  -24.4486   13.8906 O.2         1 MOL      -0.4541
     27 C27        18.8301  -34.7051   14.8022 C.ar        1 MOL      -0.0217
     28 C28        18.8761  -36.0929   14.5775 C.ar        1 MOL       0.0039
     29 N29        19.6821  -36.5939   13.6059 N.ar        1 MOL      -0.3066
     30 C30        20.4660  -35.8071   12.8293 C.ar        1 MOL       0.0039
     31 C31        20.4533  -34.4117   13.0096 C.ar        1 MOL      -0.0217
     32 H1         17.3900  -29.0152   11.9079 H           1 MOL       0.0667
     33 H2         18.5496  -29.6466   13.8516 H           1 MOL       0.0659
     34 H3         17.2492  -32.2799   14.3879 H           1 MOL       0.0771
     35 H4         17.1965  -31.3561   10.5904 H           1 MOL       0.0748
     36 H5         19.7520  -31.7260   10.9866 H           1 MOL       0.0477
     37 H6         15.4830  -31.0188   12.5979 H           1 MOL       0.2102
     38 H7         16.4538  -28.9466   14.5228 H           1 MOL       0.2101
     39 H8         19.1204  -28.9183   10.8058 H           1 MOL       0.0470
     40 H9         20.9926  -29.7492    9.1621 H           1 MOL       0.0643
     41 H10        21.7267  -30.3276   10.6493 H           1 MOL       0.0643
     42 H11        21.7635  -28.1307   11.5066 H           1 MOL       0.1867
     43 H12        23.9436  -22.6816   11.1098 H           1 MOL       0.1086
     44 H13        21.7826  -26.1505   12.0766 H           1 MOL       0.1563
     45 H14        24.2639  -26.6476    8.1493 H           1 MOL       0.3540
     46 H15        23.9080  -23.1404    7.9708 H           1 MOL       0.3497
     47 H16        18.2280  -34.3328   15.5405 H           1 MOL       0.0660
     48 H17        18.3081  -36.7305   15.1420 H           1 MOL       0.0803
     49 H18        21.0646  -36.2276   12.1193 H           1 MOL       0.0803
     50 H19        21.0459  -33.8178   12.4261 H           1 MOL       0.0660
@<TRIPOS>BOND
     1     1     2   1
     2     1     5   1
     3     1     8   1
     4     2     3   1
     5     2     9   1
     6     3     4   1
     7     3     7   1
     8     4     5   1
     9     5     6   1
    10     6    10   2
    11     7    11   1
    12    10    12   1
    13    11    27  ar
    14    11    31  ar
    15    12    13   1
    16    13    14  am
    17    14    15   1
    18    14    24   2
    19    15    16  ar
    20    15    20  ar
    21    16    17  ar
    22    16    22   1
    23    17    18  ar
    24    17    23   1
    25    18    19  ar
    26    19    20  ar
    27    19    21   1
    28    21    25   2
    29    21    26   2
    30    27    28  ar
    31    28    29  ar
    32    29    30  ar
    33    30    31  ar
    34     1    32   1
    35     2    33   1
    36     3    34   1
    37     5    35   1
    38     6    36   1
    39     8    37   1
    40     9    38   1
    41    10    39   1
    42    12    40   1
    43    12    41   1
    44    13    42   1
    45    18    43   1
    46    20    44   1
    47    22    45   1
    48    23    46   1
    49    27    47   1
    50    28    48   1
    51    30    49   1
    52    31    50   1
@<TRIPOS>SUBSTRUCTURE
     1  MOL      1

