@<TRIPOS>MOLECULE
3oe5_ligand_065
    50    52
SMALL
GAST_HUCK
****
This file was generated by PARSER (from files_GN.cpp)

@<TRIPOS>ATOM
      1 C1         13.2981  -29.9314   13.3834 C.3         1 MOL       0.1170
      2 C2         14.5635  -29.4499   12.6625 C.3         1 MOL       0.1229
      3 C3         15.6351  -30.4051   13.2259 C.3         1 MOL       0.1499
      4 O4         14.9552  -31.5862   13.6856 O.3         1 MOL      -0.3460
      5 C5         13.5430  -31.4548   13.4531 C.3         1 MOL       0.1063
      6 C6         13.1427  -32.2003   12.2603 C.2         1 MOL      -0.0658
      7 S7         16.8878  -30.8741   12.0061 S.3         1 MOL      -0.0558
      8 O8         13.2028  -29.3816   14.6994 O.3         1 MOL      -0.3847
      9 O9         14.8565  -28.0662   12.8624 O.3         1 MOL      -0.3853
     10 C10        11.8915  -32.6280   12.0339 C.2         1 MOL      -0.0744
     11 C11        18.1965  -31.2435   13.0920 C.ar        1 MOL       0.0383
     12 C12        11.5003  -33.3698   10.8463 C.3         1 MOL       0.0473
     13 N13        10.6202  -34.4457   11.1532 N.am        1 MOL      -0.2765
     14 C14        10.9215  -35.5437   11.8325 C.2         1 MOL       0.2411
     15 C15         9.9704  -36.5425   12.0123 C.ar        1 MOL       0.2482
     16 C16         8.7808  -36.3330   12.7589 C.ar        1 MOL       0.3921
     17 C17         7.8559  -37.3811   12.9370 C.ar        1 MOL       0.3797
     18 C18         8.0854  -38.6286   12.3292 C.ar        1 MOL       0.1691
     19 C19         9.2548  -38.8790   11.5753 C.ar        1 MOL       0.2168
     20 C20        10.1934  -37.8252   11.4525 C.ar        1 MOL       0.1162
     21 N21         9.4703  -40.0936   10.9941 N.2         1 MOL      -0.1404
     22 O22         8.4963  -35.1462   13.3506 O.3         1 MOL      -0.1763
     23 O23         6.7292  -37.2134   13.6839 O.3         1 MOL      -0.1825
     24 O24        12.0555  -35.7450   12.2399 O.2         1 MOL      -0.3823
     25 O25         8.6159  -41.0773   11.0884 O.2         1 MOL      -0.4541
     26 O26        10.4530  -40.3439   10.3463 O.2         1 MOL      -0.4541
     27 C27        18.4719  -32.5740   13.4690 C.ar        1 MOL      -0.0217
     28 C28        19.5838  -32.8393   14.2907 C.ar        1 MOL       0.0039
     29 N29        20.3723  -31.8156   14.7060 N.ar        1 MOL      -0.3066
     30 C30        20.1375  -30.5237   14.3662 C.ar        1 MOL       0.0039
     31 C31        19.0397  -30.2077   13.5495 C.ar        1 MOL      -0.0217
     32 H1         12.3978  -29.6563   12.8205 H           1 MOL       0.0667
     33 H2         14.4380  -29.6133   11.5874 H           1 MOL       0.0659
     34 H3         16.1089  -29.9272   14.0891 H           1 MOL       0.0771
     35 H4         13.0036  -31.8845   14.3108 H           1 MOL       0.0748
     36 H5         13.8498  -32.4111   11.5898 H           1 MOL       0.0477
     37 H6         12.6673  -30.0202   15.2204 H           1 MOL       0.2102
     38 H7         14.8879  -27.9289   13.8337 H           1 MOL       0.2101
     39 H8         11.1814  -32.4453   12.7072 H           1 MOL       0.0470
     40 H9         12.3501  -33.7597   10.2885 H           1 MOL       0.0643
     41 H10        10.9702  -32.6841   10.1834 H           1 MOL       0.0643
     42 H11         9.7185  -34.3906   10.7975 H           1 MOL       0.1867
     43 H12         7.3786  -39.3565   12.4474 H           1 MOL       0.1086
     44 H13        11.0478  -37.9864   10.9072 H           1 MOL       0.1563
     45 H14         8.6220  -34.4538   12.6696 H           1 MOL       0.3540
     46 H15         6.9527  -36.5715   14.3947 H           1 MOL       0.3497
     47 H16        17.8850  -33.3459   13.1485 H           1 MOL       0.0660
     48 H17        19.8059  -33.7964   14.5740 H           1 MOL       0.0803
     49 H18        20.7657  -29.7909   14.7011 H           1 MOL       0.0803
     50 H19        18.8635  -29.2363   13.2947 H           1 MOL       0.0660
@<TRIPOS>BOND
     1     1     2   1
     2     1     5   1
     3     1     8   1
     4     2     3   1
     5     2     9   1
     6     3     4   1
     7     3     7   1
     8     4     5   1
     9     5     6   1
    10     6    10   2
    11     7    11   1
    12    10    12   1
    13    11    27  ar
    14    11    31  ar
    15    12    13   1
    16    13    14  am
    17    14    15   1
    18    14    24   2
    19    15    16  ar
    20    15    20  ar
    21    16    17  ar
    22    16    22   1
    23    17    18  ar
    24    17    23   1
    25    18    19  ar
    26    19    20  ar
    27    19    21   1
    28    21    25   2
    29    21    26   2
    30    27    28  ar
    31    28    29  ar
    32    29    30  ar
    33    30    31  ar
    34     1    32   1
    35     2    33   1
    36     3    34   1
    37     5    35   1
    38     6    36   1
    39     8    37   1
    40     9    38   1
    41    10    39   1
    42    12    40   1
    43    12    41   1
    44    13    42   1
    45    18    43   1
    46    20    44   1
    47    22    45   1
    48    23    46   1
    49    27    47   1
    50    28    48   1
    51    30    49   1
    52    31    50   1
@<TRIPOS>SUBSTRUCTURE
     1  MOL      1

