@<TRIPOS>MOLECULE
3oe5_ligand_027
    50    52
SMALL
GAST_HUCK
****
This file was generated by PARSER (from files_GN.cpp)

@<TRIPOS>ATOM
      1 C1         20.0303  -31.4489    6.8129 C.3         1 MOL       0.1170
      2 C2         20.4214  -32.8832    6.4236 C.3         1 MOL       0.1229
      3 C3         21.9537  -32.7949    6.2793 C.3         1 MOL       0.1499
      4 O4         22.3894  -31.8314    7.2425 O.3         1 MOL      -0.3460
      5 C5         21.3277  -30.8815    7.4583 C.3         1 MOL       0.1063
      6 C6         21.2100  -30.6392    8.8884 C.2         1 MOL      -0.0658
      7 S7         22.7968  -34.3961    6.4584 S.3         1 MOL      -0.0558
      8 O8         19.6144  -30.6874    5.6776 O.3         1 MOL      -0.3847
      9 O9         19.7764  -33.3500    5.2378 O.3         1 MOL      -0.3853
     10 C10        20.4173  -29.6810    9.4018 C.2         1 MOL      -0.0744
     11 C11        23.0257  -34.4612    8.1869 C.ar        1 MOL       0.0383
     12 C12        20.2560  -29.4520   10.8257 C.3         1 MOL       0.0473
     13 N13        20.3770  -28.0502   11.0941 N.am        1 MOL      -0.2765
     14 C14        21.3745  -27.4067   11.6912 C.2         1 MOL       0.2411
     15 C15        21.3801  -26.0058   11.8857 C.ar        1 MOL       0.2482
     16 C16        20.2305  -25.1731   11.7349 C.ar        1 MOL       0.3921
     17 C17        20.3046  -23.7850   11.9846 C.ar        1 MOL       0.3797
     18 C18        21.5039  -23.2136   12.4277 C.ar        1 MOL       0.1691
     19 C19        22.6698  -23.9928   12.6016 C.ar        1 MOL       0.2168
     20 C20        22.5834  -25.3737   12.2904 C.ar        1 MOL       0.1162
     21 N21        23.8295  -23.4488   13.0702 N.2         1 MOL      -0.1404
     22 O22        19.0154  -25.7051   11.4199 O.3         1 MOL      -0.1763
     23 O23        19.2094  -22.9952   11.8111 O.3         1 MOL      -0.1825
     24 O24        22.3415  -28.0727   12.0502 O.2         1 MOL      -0.3823
     25 O25        23.9109  -22.2023   13.4442 O.2         1 MOL      -0.4541
     26 O26        24.8285  -24.0992   13.2559 O.2         1 MOL      -0.4541
     27 C27        24.2857  -34.1261    8.7296 C.ar        1 MOL      -0.0217
     28 C28        24.4752  -34.1877   10.1229 C.ar        1 MOL       0.0039
     29 N29        23.4533  -34.5740   10.9277 N.ar        1 MOL      -0.3066
     30 C30        22.2319  -34.9118   10.4420 C.ar        1 MOL       0.0039
     31 C31        21.9930  -34.8786    9.0552 C.ar        1 MOL      -0.0217
     32 H1         19.1900  -31.4818    7.5111 H           1 MOL       0.0667
     33 H2         20.1525  -33.5567    7.2491 H           1 MOL       0.0659
     34 H3         22.1958  -32.4116    5.2851 H           1 MOL       0.0771
     35 H4         21.6312  -29.9462    6.9621 H           1 MOL       0.0748
     36 H5         21.7152  -31.2334    9.5083 H           1 MOL       0.0477
     37 H6         19.1021  -29.9396    6.0523 H           1 MOL       0.2102
     38 H7         20.0933  -34.2736    5.1211 H           1 MOL       0.2101
     39 H8         19.8800  -29.1253    8.7760 H           1 MOL       0.0470
     40 H9         20.9578  -30.0494   11.4248 H           1 MOL       0.0643
     41 H10        19.2501  -29.7582   11.1002 H           1 MOL       0.0643
     42 H11        19.6614  -27.5116   10.7416 H           1 MOL       0.1867
     43 H12        21.5219  -22.2094   12.6264 H           1 MOL       0.1086
     44 H13        23.4342  -25.9310   12.3831 H           1 MOL       0.1563
     45 H14        18.3639  -24.9706   11.3287 H           1 MOL       0.3540
     46 H15        19.2583  -22.2977   12.4979 H           1 MOL       0.3497
     47 H16        25.0576  -33.8317    8.1252 H           1 MOL       0.0660
     48 H17        25.3796  -33.9486   10.5314 H           1 MOL       0.0803
     49 H18        21.4936  -35.1993   11.0878 H           1 MOL       0.0803
     50 H19        21.0759  -35.1537    8.6969 H           1 MOL       0.0660
@<TRIPOS>BOND
     1     1     2   1
     2     1     5   1
     3     1     8   1
     4     2     3   1
     5     2     9   1
     6     3     4   1
     7     3     7   1
     8     4     5   1
     9     5     6   1
    10     6    10   2
    11     7    11   1
    12    10    12   1
    13    11    27  ar
    14    11    31  ar
    15    12    13   1
    16    13    14  am
    17    14    15   1
    18    14    24   2
    19    15    16  ar
    20    15    20  ar
    21    16    17  ar
    22    16    22   1
    23    17    18  ar
    24    17    23   1
    25    18    19  ar
    26    19    20  ar
    27    19    21   1
    28    21    25   2
    29    21    26   2
    30    27    28  ar
    31    28    29  ar
    32    29    30  ar
    33    30    31  ar
    34     1    32   1
    35     2    33   1
    36     3    34   1
    37     5    35   1
    38     6    36   1
    39     8    37   1
    40     9    38   1
    41    10    39   1
    42    12    40   1
    43    12    41   1
    44    13    42   1
    45    18    43   1
    46    20    44   1
    47    22    45   1
    48    23    46   1
    49    27    47   1
    50    28    48   1
    51    30    49   1
    52    31    50   1
@<TRIPOS>SUBSTRUCTURE
     1  MOL      1

