@<TRIPOS>MOLECULE
3oe5_ligand_048
    50    52
SMALL
GAST_HUCK
****
This file was generated by PARSER (from files_GN.cpp)

@<TRIPOS>ATOM
      1 C1         19.9603  -31.1439   13.2008 C.3         1 MOL       0.1170
      2 C2         20.2615  -32.3062   14.1550 C.3         1 MOL       0.1229
      3 C3         20.9794  -33.3097   13.2326 C.3         1 MOL       0.1499
      4 O4         20.3954  -33.1392   11.9378 O.3         1 MOL      -0.3460
      5 C5         19.7401  -31.8597   11.8478 C.3         1 MOL       0.1063
      6 C6         20.1733  -31.1970   10.6201 C.2         1 MOL      -0.0658
      7 S7         22.7715  -33.0521   13.0696 S.3         1 MOL      -0.0558
      8 O8         18.8090  -30.3834   13.5709 O.3         1 MOL      -0.3847
      9 O9         19.0701  -32.9106   14.6769 O.3         1 MOL      -0.3853
     10 C10        20.1090  -29.8726   10.3758 C.2         1 MOL      -0.0744
     11 C11        23.3395  -33.9172   14.4733 C.ar        1 MOL       0.0383
     12 C12        20.4500  -29.2228    9.1152 C.3         1 MOL       0.0473
     13 N13        20.2818  -30.0442    7.9556 N.am        1 MOL      -0.2765
     14 C14        21.0802  -30.1826    6.9076 C.2         1 MOL       0.2411
     15 C15        20.7804  -31.1155    5.9006 C.ar        1 MOL       0.2482
     16 C16        21.3055  -31.0058    4.5876 C.ar        1 MOL       0.3921
     17 C17        21.0158  -31.9807    3.6156 C.ar        1 MOL       0.3797
     18 C18        20.1940  -33.0804    3.9375 C.ar        1 MOL       0.1691
     19 C19        19.6338  -33.2224    5.2264 C.ar        1 MOL       0.2168
     20 C20        19.9374  -32.2244    6.1851 C.ar        1 MOL       0.1162
     21 N21        18.8441  -34.2974    5.5382 N.2         1 MOL      -0.1404
     22 O22        22.0824  -29.9473    4.2309 O.3         1 MOL      -0.1763
     23 O23        21.5541  -31.8877    2.3772 O.3         1 MOL      -0.1825
     24 O24        22.0906  -29.4915    6.8159 O.2         1 MOL      -0.3823
     25 O25        18.5592  -35.2291    4.6694 O.2         1 MOL      -0.4541
     26 O26        18.3643  -34.4590    6.6247 O.2         1 MOL      -0.4541
     27 C27        24.1653  -33.2570   15.4136 C.ar        1 MOL      -0.0217
     28 C28        24.6676  -33.9724   16.5123 C.ar        1 MOL       0.0039
     29 N29        24.3753  -35.2888   16.6570 N.ar        1 MOL      -0.3066
     30 C30        23.6029  -35.9626   15.7631 C.ar        1 MOL       0.0039
     31 C31        23.0724  -35.2926   14.6476 C.ar        1 MOL      -0.0217
     32 H1         20.8333  -30.4908   13.1616 H           1 MOL       0.0667
     33 H2         20.8862  -31.9836   14.9931 H           1 MOL       0.0659
     34 H3         20.7893  -34.3331   13.5484 H           1 MOL       0.0771
     35 H4         18.6740  -32.0814   11.7263 H           1 MOL       0.0748
     36 H5         20.4569  -31.7992    9.8792 H           1 MOL       0.0477
     37 H6         18.8611  -30.2245   14.5371 H           1 MOL       0.2102
     38 H7         18.7049  -32.2483   15.3022 H           1 MOL       0.2101
     39 H8         19.8180  -29.2712   11.1072 H           1 MOL       0.0470
     40 H9         21.4638  -28.8117    9.2009 H           1 MOL       0.0643
     41 H10        19.7706  -28.3765    8.9863 H           1 MOL       0.0643
     42 H11        19.4849  -30.5906    7.9530 H           1 MOL       0.1867
     43 H12        20.0237  -33.7857    3.2172 H           1 MOL       0.1086
     44 H13        19.5649  -32.3345    7.1326 H           1 MOL       0.1563
     45 H14        21.7366  -29.6495    3.3548 H           1 MOL       0.3540
     46 H15        20.8386  -31.5057    1.8174 H           1 MOL       0.3497
     47 H16        24.4026  -32.2677   15.2997 H           1 MOL       0.0660
     48 H17        25.2605  -33.5094   17.2051 H           1 MOL       0.0803
     49 H18        23.4196  -36.9597   15.9061 H           1 MOL       0.0803
     50 H19        22.5078  -35.8116   13.9723 H           1 MOL       0.0660
@<TRIPOS>BOND
     1     1     2   1
     2     1     5   1
     3     1     8   1
     4     2     3   1
     5     2     9   1
     6     3     4   1
     7     3     7   1
     8     4     5   1
     9     5     6   1
    10     6    10   2
    11     7    11   1
    12    10    12   1
    13    11    27  ar
    14    11    31  ar
    15    12    13   1
    16    13    14  am
    17    14    15   1
    18    14    24   2
    19    15    16  ar
    20    15    20  ar
    21    16    17  ar
    22    16    22   1
    23    17    18  ar
    24    17    23   1
    25    18    19  ar
    26    19    20  ar
    27    19    21   1
    28    21    25   2
    29    21    26   2
    30    27    28  ar
    31    28    29  ar
    32    29    30  ar
    33    30    31  ar
    34     1    32   1
    35     2    33   1
    36     3    34   1
    37     5    35   1
    38     6    36   1
    39     8    37   1
    40     9    38   1
    41    10    39   1
    42    12    40   1
    43    12    41   1
    44    13    42   1
    45    18    43   1
    46    20    44   1
    47    22    45   1
    48    23    46   1
    49    27    47   1
    50    28    48   1
    51    30    49   1
    52    31    50   1
@<TRIPOS>SUBSTRUCTURE
     1  MOL      1

