@<TRIPOS>MOLECULE
3oe5_ligand_029
    50    52
SMALL
GAST_HUCK
****
This file was generated by PARSER (from files_GN.cpp)

@<TRIPOS>ATOM
      1 C1         24.0670  -27.1242    6.0558 C.3         1 MOL       0.1170
      2 C2         25.0881  -27.2687    4.9156 C.3         1 MOL       0.1229
      3 C3         26.1103  -28.2749    5.4710 C.3         1 MOL       0.1499
      4 O4         25.3731  -29.1292    6.3539 O.3         1 MOL      -0.3460
      5 C5         24.2399  -28.4238    6.8812 C.3         1 MOL       0.1063
      6 C6         23.0848  -29.3137    6.8337 C.2         1 MOL      -0.0658
      7 S7         26.9529  -29.1530    4.1187 S.3         1 MOL      -0.0558
      8 O8         24.2938  -25.9662    6.8634 O.3         1 MOL      -0.3847
      9 O9         25.6881  -26.0387    4.5112 O.3         1 MOL      -0.3853
     10 C10        22.0628  -29.2445    7.7006 C.2         1 MOL      -0.0744
     11 C11        26.8475  -30.8091    4.6558 C.ar        1 MOL       0.0383
     12 C12        20.8856  -30.0997    7.6285 C.3         1 MOL       0.0473
     13 N13        20.3760  -30.4618    8.9192 N.am        1 MOL      -0.2765
     14 C14        20.8980  -31.3322    9.7814 C.2         1 MOL       0.2411
     15 C15        20.3429  -31.5783   11.0570 C.ar        1 MOL       0.2482
     16 C16        19.3431  -30.7519   11.6480 C.ar        1 MOL       0.3921
     17 C17        18.8350  -31.0306   12.9323 C.ar        1 MOL       0.3797
     18 C18        19.3005  -32.1423   13.6513 C.ar        1 MOL       0.1691
     19 C19        20.2973  -32.9889   13.1186 C.ar        1 MOL       0.2168
     20 C20        20.8019  -32.6805   11.8317 C.ar        1 MOL       0.1162
     21 N21        20.7534  -34.0596   13.8395 N.2         1 MOL      -0.1404
     22 O22        18.8640  -29.6349   11.0470 O.3         1 MOL      -0.1763
     23 O23        17.8996  -30.2165   13.4857 O.3         1 MOL      -0.1825
     24 O24        21.8898  -31.9549    9.4230 O.2         1 MOL      -0.3823
     25 O25        20.2848  -34.3560   15.0201 O.2         1 MOL      -0.4541
     26 O26        21.6097  -34.7990   13.4335 O.2         1 MOL      -0.4541
     27 C27        28.0013  -31.4920    5.0904 C.ar        1 MOL      -0.0217
     28 C28        27.8828  -32.8221    5.5412 C.ar        1 MOL       0.0039
     29 N29        26.6680  -33.4274    5.5457 N.ar        1 MOL      -0.3066
     30 C30        25.5403  -32.8055    5.1179 C.ar        1 MOL       0.0039
     31 C31        25.6065  -31.4838    4.6468 C.ar        1 MOL      -0.0217
     32 H1         23.0615  -27.0305    5.6382 H           1 MOL       0.0667
     33 H2         24.5787  -27.6946    4.0485 H           1 MOL       0.0659
     34 H3         26.8642  -27.7536    6.0606 H           1 MOL       0.0771
     35 H4         24.4727  -28.1784    7.9189 H           1 MOL       0.0748
     36 H5         23.0318  -29.9653    6.0832 H           1 MOL       0.0477
     37 H6         25.2567  -25.9268    7.0522 H           1 MOL       0.2102
     38 H7         26.0750  -25.6513    5.3236 H           1 MOL       0.2101
     39 H8         22.0705  -28.5319    8.3960 H           1 MOL       0.0470
     40 H9         21.0640  -31.0058    7.0413 H           1 MOL       0.0643
     41 H10        20.1056  -29.5317    7.1253 H           1 MOL       0.0643
     42 H11        19.5438  -30.0405    9.1679 H           1 MOL       0.1867
     43 H12        18.9067  -32.3221   14.5779 H           1 MOL       0.1086
     44 H13        21.5234  -33.2942   11.4430 H           1 MOL       0.1563
     45 H14        19.4761  -28.9216   11.3252 H           1 MOL       0.3540
     46 H15        18.1856  -30.0728   14.4127 H           1 MOL       0.3497
     47 H16        28.9193  -31.0369    5.0827 H           1 MOL       0.0660
     48 H17        28.7062  -33.3330    5.8614 H           1 MOL       0.0803
     49 H18        24.6500  -33.3045    5.1409 H           1 MOL       0.0803
     50 H19        24.7565  -31.0156    4.3225 H           1 MOL       0.0660
@<TRIPOS>BOND
     1     1     2   1
     2     1     5   1
     3     1     8   1
     4     2     3   1
     5     2     9   1
     6     3     4   1
     7     3     7   1
     8     4     5   1
     9     5     6   1
    10     6    10   2
    11     7    11   1
    12    10    12   1
    13    11    27  ar
    14    11    31  ar
    15    12    13   1
    16    13    14  am
    17    14    15   1
    18    14    24   2
    19    15    16  ar
    20    15    20  ar
    21    16    17  ar
    22    16    22   1
    23    17    18  ar
    24    17    23   1
    25    18    19  ar
    26    19    20  ar
    27    19    21   1
    28    21    25   2
    29    21    26   2
    30    27    28  ar
    31    28    29  ar
    32    29    30  ar
    33    30    31  ar
    34     1    32   1
    35     2    33   1
    36     3    34   1
    37     5    35   1
    38     6    36   1
    39     8    37   1
    40     9    38   1
    41    10    39   1
    42    12    40   1
    43    12    41   1
    44    13    42   1
    45    18    43   1
    46    20    44   1
    47    22    45   1
    48    23    46   1
    49    27    47   1
    50    28    48   1
    51    30    49   1
    52    31    50   1
@<TRIPOS>SUBSTRUCTURE
     1  MOL      1

