@<TRIPOS>MOLECULE
3oe5_ligand_069
    50    52
SMALL
GAST_HUCK
****
This file was generated by PARSER (from files_GN.cpp)

@<TRIPOS>ATOM
      1 C1         21.0660  -35.5732    8.2700 C.3         1 MOL       0.1170
      2 C2         22.0610  -35.7981    9.4192 C.3         1 MOL       0.1229
      3 C3         22.7920  -34.4444    9.4916 C.3         1 MOL       0.1499
      4 O4         22.9120  -34.0499    8.1210 O.3         1 MOL      -0.3460
      5 C5         21.7545  -34.4972    7.3822 C.3         1 MOL       0.1063
      6 C6         20.8843  -33.3868    7.0011 C.2         1 MOL      -0.0658
      7 S7         21.9636  -33.1168   10.4253 S.3         1 MOL      -0.0558
      8 O8         20.7377  -36.7703    7.5634 O.3         1 MOL      -0.3847
      9 O9         22.9949  -36.8378    9.1217 O.3         1 MOL      -0.3853
     10 C10        21.3298  -32.1293    6.8218 C.2         1 MOL      -0.0744
     11 C11        21.7113  -33.8119   12.0106 C.ar        1 MOL       0.0383
     12 C12        20.4708  -30.9937    6.5374 C.3         1 MOL       0.0473
     13 N13        20.8985  -29.8489    7.2878 N.am        1 MOL      -0.2765
     14 C14        20.6228  -29.5382    8.5537 C.2         1 MOL       0.2411
     15 C15        21.1502  -28.3994    9.2055 C.ar        1 MOL       0.2482
     16 C16        22.0503  -27.4816    8.5946 C.ar        1 MOL       0.3921
     17 C17        22.5386  -26.3573    9.2903 C.ar        1 MOL       0.3797
     18 C18        22.1429  -26.1200   10.6159 C.ar        1 MOL       0.1691
     19 C19        21.2452  -26.9904   11.2720 C.ar        1 MOL       0.2168
     20 C20        20.7854  -28.1250   10.5532 C.ar        1 MOL       0.1162
     21 N21        20.8216  -26.7302   12.5451 N.2         1 MOL      -0.1404
     22 O22        22.4691  -27.5947    7.3142 O.3         1 MOL      -0.1763
     23 O23        23.3611  -25.4738    8.6641 O.3         1 MOL      -0.1825
     24 O24        19.8672  -30.2945    9.1568 O.2         1 MOL      -0.3823
     25 O25        21.1866  -25.6596   13.2010 O.2         1 MOL      -0.4541
     26 O26        20.0538  -27.4445   13.1359 O.2         1 MOL      -0.4541
     27 C27        22.5370  -34.8196   12.5589 C.ar        1 MOL      -0.0217
     28 C28        22.2016  -35.3850   13.8021 C.ar        1 MOL       0.0039
     29 N29        21.1324  -34.9113   14.4915 N.ar        1 MOL      -0.3066
     30 C30        20.3474  -33.9115   14.0232 C.ar        1 MOL       0.0039
     31 C31        20.6143  -33.3436   12.7653 C.ar        1 MOL      -0.0217
     32 H1         20.1385  -35.1886    8.7030 H           1 MOL       0.0667
     33 H2         21.5456  -36.0557   10.3473 H           1 MOL       0.0659
     34 H3         23.7978  -34.5718    9.8988 H           1 MOL       0.0771
     35 H4         22.1182  -34.9551    6.4580 H           1 MOL       0.0748
     36 H5         19.9182  -33.5722    6.8542 H           1 MOL       0.0477
     37 H6         21.5848  -37.1103    7.2053 H           1 MOL       0.2102
     38 H7         23.4936  -36.9828    9.9540 H           1 MOL       0.2101
     39 H8         22.3085  -31.9553    6.8923 H           1 MOL       0.0470
     40 H9         19.4091  -31.1924    6.7121 H           1 MOL       0.0643
     41 H10        20.5860  -30.7598    5.4786 H           1 MOL       0.0643
     42 H11        21.4782  -29.2491    6.8034 H           1 MOL       0.1867
     43 H12        22.5001  -25.2868   11.0933 H           1 MOL       0.1086
     44 H13        20.1388  -28.7576   11.0299 H           1 MOL       0.1563
     45 H14        23.3780  -27.9748    7.3686 H           1 MOL       0.3540
     46 H15        24.0519  -25.2477    9.3243 H           1 MOL       0.3497
     47 H16        23.3602  -35.1643   12.0637 H           1 MOL       0.0660
     48 H17        22.7530  -36.1484   14.1918 H           1 MOL       0.0803
     49 H18        19.5461  -33.5985   14.5729 H           1 MOL       0.0803
     50 H19        20.0101  -32.5965   12.4115 H           1 MOL       0.0660
@<TRIPOS>BOND
     1     1     2   1
     2     1     5   1
     3     1     8   1
     4     2     3   1
     5     2     9   1
     6     3     4   1
     7     3     7   1
     8     4     5   1
     9     5     6   1
    10     6    10   2
    11     7    11   1
    12    10    12   1
    13    11    27  ar
    14    11    31  ar
    15    12    13   1
    16    13    14  am
    17    14    15   1
    18    14    24   2
    19    15    16  ar
    20    15    20  ar
    21    16    17  ar
    22    16    22   1
    23    17    18  ar
    24    17    23   1
    25    18    19  ar
    26    19    20  ar
    27    19    21   1
    28    21    25   2
    29    21    26   2
    30    27    28  ar
    31    28    29  ar
    32    29    30  ar
    33    30    31  ar
    34     1    32   1
    35     2    33   1
    36     3    34   1
    37     5    35   1
    38     6    36   1
    39     8    37   1
    40     9    38   1
    41    10    39   1
    42    12    40   1
    43    12    41   1
    44    13    42   1
    45    18    43   1
    46    20    44   1
    47    22    45   1
    48    23    46   1
    49    27    47   1
    50    28    48   1
    51    30    49   1
    52    31    50   1
@<TRIPOS>SUBSTRUCTURE
     1  MOL      1

