@<TRIPOS>MOLECULE
3oe5_ligand_004
    50    52
SMALL
GAST_HUCK
****
This file was generated by PARSER (from files_GN.cpp)

@<TRIPOS>ATOM
      1 C1         20.4032  -28.9559   11.3246 C.3         1 MOL       0.1170
      2 C2         21.1160  -29.7623   12.4223 C.3         1 MOL       0.1229
      3 C3         20.2217  -31.0052   12.5365 C.3         1 MOL       0.1499
      4 O4         19.8711  -31.2977   11.1837 O.3         1 MOL      -0.3460
      5 C5         19.6294  -30.0407   10.5203 C.3         1 MOL       0.1063
      6 C6         19.9641  -30.0354    9.0993 C.2         1 MOL      -0.0658
      7 S7         20.8949  -32.4673   13.3709 S.3         1 MOL      -0.0558
      8 O8         19.5112  -27.9872   11.8808 O.3         1 MOL      -0.3847
      9 O9         21.2585  -29.0492   13.6464 O.3         1 MOL      -0.3853
     10 C10        20.3092  -31.1062    8.3706 C.2         1 MOL      -0.0744
     11 C11        22.4335  -32.6696   12.5803 C.ar        1 MOL       0.0383
     12 C12        20.5627  -31.0542    6.9393 C.3         1 MOL       0.0473
     13 N13        21.6072  -30.1281    6.6534 N.am        1 MOL      -0.2765
     14 C14        22.7273  -30.3004    5.9628 C.2         1 MOL       0.2411
     15 C15        23.6672  -29.2633    5.7918 C.ar        1 MOL       0.2482
     16 C16        23.5978  -28.0265    6.4912 C.ar        1 MOL       0.3921
     17 C17        24.5664  -27.0277    6.2957 C.ar        1 MOL       0.3797
     18 C18        25.6172  -27.2338    5.3877 C.ar        1 MOL       0.1691
     19 C19        25.7319  -28.4354    4.6626 C.ar        1 MOL       0.2168
     20 C20        24.7501  -29.4345    4.8847 C.ar        1 MOL       0.1162
     21 N21        26.7510  -28.6177    3.7651 N.2         1 MOL      -0.1404
     22 O22        22.6331  -27.7134    7.3908 O.3         1 MOL      -0.1763
     23 O23        24.4807  -25.8704    6.9960 O.3         1 MOL      -0.1825
     24 O24        22.9208  -31.3962    5.4563 O.2         1 MOL      -0.3823
     25 O25        27.6568  -27.7019    3.5437 O.2         1 MOL      -0.4541
     26 O26        26.8784  -29.6192    3.1186 O.2         1 MOL      -0.4541
     27 C27        22.5243  -33.1724   11.2631 C.ar        1 MOL      -0.0217
     28 C28        23.7887  -33.2859   10.6613 C.ar        1 MOL       0.0039
     29 N29        24.9004  -32.9145   11.3470 N.ar        1 MOL      -0.3066
     30 C30        24.8528  -32.4490   12.6210 C.ar        1 MOL       0.0039
     31 C31        23.6115  -32.3128   13.2664 C.ar        1 MOL      -0.0217
     32 H1         21.1449  -28.4163   10.7292 H           1 MOL       0.0667
     33 H2         22.1108  -30.0287   12.0655 H           1 MOL       0.0659
     34 H3         19.3141  -30.7443   13.0884 H           1 MOL       0.0771
     35 H4         18.5543  -29.8476   10.5872 H           1 MOL       0.0748
     36 H5         19.9049  -29.1534    8.6399 H           1 MOL       0.0477
     37 H6         19.2732  -27.3975   11.1340 H           1 MOL       0.2102
     38 H7         21.7734  -29.6336   14.2422 H           1 MOL       0.2101
     39 H8         20.3789  -31.9934    8.8111 H           1 MOL       0.0470
     40 H9         19.6613  -30.7130    6.4266 H           1 MOL       0.0643
     41 H10        20.7963  -32.0510    6.5689 H           1 MOL       0.0643
     42 H11        21.4560  -29.2563    7.0181 H           1 MOL       0.1867
     43 H12        26.2982  -26.4825    5.2617 H           1 MOL       0.1086
     44 H13        24.8326  -30.3088    4.3601 H           1 MOL       0.1563
     45 H14        22.9995  -27.9787    8.2611 H           1 MOL       0.3540
     46 H15        25.3980  -25.6479    7.2517 H           1 MOL       0.3497
     47 H16        21.6875  -33.4623   10.7542 H           1 MOL       0.0660
     48 H17        23.8763  -33.6317    9.7038 H           1 MOL       0.0803
     49 H18        25.7185  -32.1865   13.0931 H           1 MOL       0.0803
     50 H19        23.5795  -31.9619   14.2272 H           1 MOL       0.0660
@<TRIPOS>BOND
     1     1     2   1
     2     1     5   1
     3     1     8   1
     4     2     3   1
     5     2     9   1
     6     3     4   1
     7     3     7   1
     8     4     5   1
     9     5     6   1
    10     6    10   2
    11     7    11   1
    12    10    12   1
    13    11    27  ar
    14    11    31  ar
    15    12    13   1
    16    13    14  am
    17    14    15   1
    18    14    24   2
    19    15    16  ar
    20    15    20  ar
    21    16    17  ar
    22    16    22   1
    23    17    18  ar
    24    17    23   1
    25    18    19  ar
    26    19    20  ar
    27    19    21   1
    28    21    25   2
    29    21    26   2
    30    27    28  ar
    31    28    29  ar
    32    29    30  ar
    33    30    31  ar
    34     1    32   1
    35     2    33   1
    36     3    34   1
    37     5    35   1
    38     6    36   1
    39     8    37   1
    40     9    38   1
    41    10    39   1
    42    12    40   1
    43    12    41   1
    44    13    42   1
    45    18    43   1
    46    20    44   1
    47    22    45   1
    48    23    46   1
    49    27    47   1
    50    28    48   1
    51    30    49   1
    52    31    50   1
@<TRIPOS>SUBSTRUCTURE
     1  MOL      1

