@<TRIPOS>MOLECULE
3oe5_ligand_078
    50    52
SMALL
GAST_HUCK
****
This file was generated by PARSER (from files_GN.cpp)

@<TRIPOS>ATOM
      1 C1         13.4630  -29.8068   13.9059 C.3         1 MOL       0.1170
      2 C2         14.6666  -29.3928   13.0465 C.3         1 MOL       0.1229
      3 C3         15.5747  -30.6468   13.0969 C.3         1 MOL       0.1499
      4 O4         14.8120  -31.7063   13.6933 O.3         1 MOL      -0.3460
      5 C5         13.4217  -31.3409   13.7102 C.3         1 MOL       0.1063
      6 C6         12.7791  -31.9522   12.5579 C.2         1 MOL      -0.0658
      7 S7         16.1201  -31.1621   11.4449 S.3         1 MOL      -0.0558
      8 O8         13.7063  -29.4984   15.2791 O.3         1 MOL      -0.3847
      9 O9         15.3282  -28.2059   13.5038 O.3         1 MOL      -0.3853
     10 C10        12.1696  -31.3020   11.5438 C.2         1 MOL      -0.0744
     11 C11        17.7868  -31.5474   11.7499 C.ar        1 MOL       0.0383
     12 C12        11.5047  -31.9315   10.4110 C.3         1 MOL       0.0473
     13 N13        11.3701  -33.3578   10.4171 N.am        1 MOL      -0.2765
     14 C14        10.6274  -34.0752   11.2548 C.2         1 MOL       0.2411
     15 C15        10.7863  -35.4578   11.2721 C.ar        1 MOL       0.2482
     16 C16        10.8027  -36.2176   10.0730 C.ar        1 MOL       0.3921
     17 C17        11.0248  -37.6031   10.1170 C.ar        1 MOL       0.3797
     18 C18        11.2549  -38.2401   11.3503 C.ar        1 MOL       0.1691
     19 C19        11.2593  -37.5153   12.5674 C.ar        1 MOL       0.2168
     20 C20        10.9987  -36.1254   12.4996 C.ar        1 MOL       0.1162
     21 N21        11.5007  -38.1421   13.7558 N.2         1 MOL      -0.1404
     22 O22        10.5353  -35.6519    8.8686 O.3         1 MOL      -0.1763
     23 O23        10.9978  -38.3478    8.9841 O.3         1 MOL      -0.1825
     24 O24         9.9186  -33.5281   12.0928 O.2         1 MOL      -0.3823
     25 O25        11.7571  -39.4208   13.8332 O.2         1 MOL      -0.4541
     26 O26        11.5070  -37.5567   14.8074 O.2         1 MOL      -0.4541
     27 C27        18.7860  -30.8938   10.9993 C.ar        1 MOL      -0.0217
     28 C28        20.1385  -31.2079   11.2341 C.ar        1 MOL       0.0039
     29 N29        20.4645  -32.1350   12.1722 N.ar        1 MOL      -0.3066
     30 C30        19.5271  -32.7890   12.9052 C.ar        1 MOL       0.0039
     31 C31        18.1600  -32.5145   12.7045 C.ar        1 MOL      -0.0217
     32 H1         12.5447  -29.3153   13.6029 H           1 MOL       0.0667
     33 H2         14.3172  -29.1956   12.0281 H           1 MOL       0.0659
     34 H3         16.4261  -30.4561   13.7510 H           1 MOL       0.0771
     35 H4         12.9444  -31.7930   14.5846 H           1 MOL       0.0748
     36 H5         12.8277  -32.9427   12.5168 H           1 MOL       0.0477
     37 H6         12.9396  -29.8656   15.7790 H           1 MOL       0.2102
     38 H7         15.5850  -28.3725   14.4400 H           1 MOL       0.2101
     39 H8         12.1896  -30.3054   11.5380 H           1 MOL       0.0470
     40 H9         12.0743  -31.6674    9.5193 H           1 MOL       0.0643
     41 H10        10.5096  -31.5027   10.3038 H           1 MOL       0.0643
     42 H11        11.9458  -33.8483    9.8021 H           1 MOL       0.1867
     43 H12        11.4366  -39.2527   11.3507 H           1 MOL       0.1086
     44 H13        10.9961  -35.5826   13.3629 H           1 MOL       0.1563
     45 H14         9.6818  -35.1690    9.0178 H           1 MOL       0.3540
     46 H15        11.6139  -37.8763    8.3655 H           1 MOL       0.3497
     47 H16        18.5460  -30.1906   10.2945 H           1 MOL       0.0660
     48 H17        20.8799  -30.7409   10.7064 H           1 MOL       0.0803
     49 H18        19.8210  -33.4757   13.6031 H           1 MOL       0.0803
     50 H19        17.4585  -33.0162   13.2509 H           1 MOL       0.0660
@<TRIPOS>BOND
     1     1     2   1
     2     1     5   1
     3     1     8   1
     4     2     3   1
     5     2     9   1
     6     3     4   1
     7     3     7   1
     8     4     5   1
     9     5     6   1
    10     6    10   2
    11     7    11   1
    12    10    12   1
    13    11    27  ar
    14    11    31  ar
    15    12    13   1
    16    13    14  am
    17    14    15   1
    18    14    24   2
    19    15    16  ar
    20    15    20  ar
    21    16    17  ar
    22    16    22   1
    23    17    18  ar
    24    17    23   1
    25    18    19  ar
    26    19    20  ar
    27    19    21   1
    28    21    25   2
    29    21    26   2
    30    27    28  ar
    31    28    29  ar
    32    29    30  ar
    33    30    31  ar
    34     1    32   1
    35     2    33   1
    36     3    34   1
    37     5    35   1
    38     6    36   1
    39     8    37   1
    40     9    38   1
    41    10    39   1
    42    12    40   1
    43    12    41   1
    44    13    42   1
    45    18    43   1
    46    20    44   1
    47    22    45   1
    48    23    46   1
    49    27    47   1
    50    28    48   1
    51    30    49   1
    52    31    50   1
@<TRIPOS>SUBSTRUCTURE
     1  MOL      1

