@<TRIPOS>MOLECULE
3oe5_ligand_006
    50    52
SMALL
GAST_HUCK
****
This file was generated by PARSER (from files_GN.cpp)

@<TRIPOS>ATOM
      1 C1         20.2845  -29.5032   13.5106 C.3         1 MOL       0.1170
      2 C2         19.9744  -30.9441   13.9732 C.3         1 MOL       0.1229
      3 C3         20.8937  -31.8323   13.1025 C.3         1 MOL       0.1499
      4 O4         21.8629  -30.9342   12.5584 O.3         1 MOL      -0.3460
      5 C5         21.1528  -29.7290   12.2571 C.3         1 MOL       0.1063
      6 C6         22.0538  -28.6426   11.9175 C.2         1 MOL      -0.0658
      7 S7         21.7696  -33.1281   14.0201 S.3         1 MOL      -0.0558
      8 O8         19.1235  -28.7188   13.2261 O.3         1 MOL      -0.3847
      9 O9         18.6011  -31.2815   13.7954 O.3         1 MOL      -0.3853
     10 C10        21.6183  -27.5205   11.3110 C.2         1 MOL      -0.0744
     11 C11        20.5828  -34.3981   13.8909 C.ar        1 MOL       0.0383
     12 C12        22.4951  -26.5638   10.6542 C.3         1 MOL       0.0473
     13 N13        23.1917  -27.0454    9.4966 N.am        1 MOL      -0.2765
     14 C14        22.6974  -27.7500    8.4826 C.2         1 MOL       0.2411
     15 C15        23.4686  -28.0359    7.3585 C.ar        1 MOL       0.2482
     16 C16        24.3217  -27.0683    6.7648 C.ar        1 MOL       0.3921
     17 C17        25.0250  -27.3645    5.5777 C.ar        1 MOL       0.3797
     18 C18        24.9082  -28.6360    4.9879 C.ar        1 MOL       0.1691
     19 C19        24.0983  -29.6399    5.5630 C.ar        1 MOL       0.2168
     20 C20        23.3794  -29.3087    6.7431 C.ar        1 MOL       0.1162
     21 N21        24.0139  -30.8775    4.9921 N.2         1 MOL      -0.1404
     22 O22        24.4126  -25.8120    7.2673 O.3         1 MOL      -0.1763
     23 O23        25.7909  -26.4252    4.9659 O.3         1 MOL      -0.1825
     24 O24        21.5478  -28.1701    8.5291 O.2         1 MOL      -0.3823
     25 O25        24.6904  -31.2049    3.9228 O.2         1 MOL      -0.4541
     26 O26        23.3292  -31.7622    5.4442 O.2         1 MOL      -0.4541
     27 C27        20.8688  -35.5208   13.0867 C.ar        1 MOL      -0.0217
     28 C28        19.9330  -36.5678   13.0104 C.ar        1 MOL       0.0039
     29 N29        18.7673  -36.4842   13.7023 N.ar        1 MOL      -0.3066
     30 C30        18.4588  -35.4183   14.4836 C.ar        1 MOL       0.0039
     31 C31        19.3660  -34.3505   14.6026 C.ar        1 MOL      -0.0217
     32 H1         20.8620  -28.9910   14.2859 H           1 MOL       0.0667
     33 H2         20.2160  -31.0478   15.0361 H           1 MOL       0.0659
     34 H3         20.3426  -32.2837   12.2685 H           1 MOL       0.0771
     35 H4         20.5128  -29.9171   11.3852 H           1 MOL       0.0748
     36 H5         23.0316  -28.7853   12.0184 H           1 MOL       0.0477
     37 H6         18.6403  -28.6728   14.0789 H           1 MOL       0.2102
     38 H7         18.1899  -30.9489   14.6186 H           1 MOL       0.2101
     39 H8         20.6367  -27.3630   11.2406 H           1 MOL       0.0470
     40 H9         23.2384  -26.2146   11.3782 H           1 MOL       0.0643
     41 H10        21.9055  -25.6928   10.3472 H           1 MOL       0.0643
     42 H11        24.1176  -26.7726    9.4235 H           1 MOL       0.1867
     43 H12        25.4270  -28.8188    4.1218 H           1 MOL       0.1086
     44 H13        22.7857  -30.0216    7.1701 H           1 MOL       0.1563
     45 H14        25.3726  -25.6443    7.3851 H           1 MOL       0.3540
     46 H15        26.6244  -26.3978    5.4835 H           1 MOL       0.3497
     47 H16        21.7477  -35.5874   12.5656 H           1 MOL       0.0660
     48 H17        20.1261  -37.3946   12.4426 H           1 MOL       0.0803
     49 H18        17.5725  -35.4041   14.9898 H           1 MOL       0.0803
     50 H19        19.1376  -33.5585   15.2070 H           1 MOL       0.0660
@<TRIPOS>BOND
     1     1     2   1
     2     1     5   1
     3     1     8   1
     4     2     3   1
     5     2     9   1
     6     3     4   1
     7     3     7   1
     8     4     5   1
     9     5     6   1
    10     6    10   2
    11     7    11   1
    12    10    12   1
    13    11    27  ar
    14    11    31  ar
    15    12    13   1
    16    13    14  am
    17    14    15   1
    18    14    24   2
    19    15    16  ar
    20    15    20  ar
    21    16    17  ar
    22    16    22   1
    23    17    18  ar
    24    17    23   1
    25    18    19  ar
    26    19    20  ar
    27    19    21   1
    28    21    25   2
    29    21    26   2
    30    27    28  ar
    31    28    29  ar
    32    29    30  ar
    33    30    31  ar
    34     1    32   1
    35     2    33   1
    36     3    34   1
    37     5    35   1
    38     6    36   1
    39     8    37   1
    40     9    38   1
    41    10    39   1
    42    12    40   1
    43    12    41   1
    44    13    42   1
    45    18    43   1
    46    20    44   1
    47    22    45   1
    48    23    46   1
    49    27    47   1
    50    28    48   1
    51    30    49   1
    52    31    50   1
@<TRIPOS>SUBSTRUCTURE
     1  MOL      1

