@<TRIPOS>MOLECULE
3oe5_ligand_073
    50    52
SMALL
GAST_HUCK
****
This file was generated by PARSER (from files_GN.cpp)

@<TRIPOS>ATOM
      1 C1         26.1911  -30.6774    4.3985 C.3         1 MOL       0.1170
      2 C2         25.5342  -32.0563    4.1620 C.3         1 MOL       0.1229
      3 C3         25.0571  -32.4491    5.5773 C.3         1 MOL       0.1499
      4 O4         24.6079  -31.2100    6.1338 O.3         1 MOL      -0.3460
      5 C5         25.5765  -30.2089    5.7534 C.3         1 MOL       0.1063
      6 C6         24.9664  -28.8869    5.7461 C.2         1 MOL      -0.0658
      7 S7         23.8003  -33.7565    5.6376 S.3         1 MOL      -0.0558
      8 O8         27.6179  -30.7607    4.4913 O.3         1 MOL      -0.3847
      9 O9         26.4171  -33.0251    3.5855 O.3         1 MOL      -0.3853
     10 C10        24.5126  -28.2839    6.8679 C.2         1 MOL      -0.0744
     11 C11        22.3335  -32.8558    5.3862 C.ar        1 MOL       0.0383
     12 C12        24.0920  -26.8993    6.9143 C.3         1 MOL       0.0473
     13 N13        23.7646  -26.4658    8.2374 N.am        1 MOL      -0.2765
     14 C14        22.5869  -26.5708    8.8464 C.2         1 MOL       0.2411
     15 C15        22.4003  -26.1541   10.1714 C.ar        1 MOL       0.2482
     16 C16        21.5644  -26.8719   11.0654 C.ar        1 MOL       0.3921
     17 C17        21.3021  -26.3834   12.3585 C.ar        1 MOL       0.3797
     18 C18        21.8762  -25.1724   12.7823 C.ar        1 MOL       0.1691
     19 C19        22.7382  -24.4321   11.9429 C.ar        1 MOL       0.2168
     20 C20        22.9950  -24.9529   10.6480 C.ar        1 MOL       0.1162
     21 N21        23.2630  -23.2407   12.3582 N.2         1 MOL      -0.1404
     22 O22        20.9783  -28.0460   10.7133 O.3         1 MOL      -0.1763
     23 O23        20.4926  -27.0455   13.2304 O.3         1 MOL      -0.1825
     24 O24        21.6361  -27.0132    8.1988 O.2         1 MOL      -0.3823
     25 O25        22.9868  -22.7165   13.5187 O.2         1 MOL      -0.4541
     26 O26        24.0028  -22.5783   11.6812 O.2         1 MOL      -0.4541
     27 C27        21.6417  -32.9811    4.1596 C.ar        1 MOL      -0.0217
     28 C28        20.4186  -32.3045    3.9895 C.ar        1 MOL       0.0039
     29 N29        19.9214  -31.5544    5.0019 N.ar        1 MOL      -0.3066
     30 C30        20.5550  -31.4067    6.1917 C.ar        1 MOL       0.0039
     31 C31        21.7739  -32.0686    6.4152 C.ar        1 MOL      -0.0217
     32 H1         25.9396  -30.0066    3.5679 H           1 MOL       0.0667
     33 H2         24.6712  -31.9239    3.4968 H           1 MOL       0.0659
     34 H3         25.9205  -32.8183    6.1531 H           1 MOL       0.0771
     35 H4         26.3597  -30.1983    6.5252 H           1 MOL       0.0748
     36 H5         24.9346  -28.3711    4.8906 H           1 MOL       0.0477
     37 H6         27.9125  -31.0089    3.5870 H           1 MOL       0.2102
     38 H7         25.8487  -33.8074    3.4183 H           1 MOL       0.2101
     39 H8         24.5253  -28.8115    7.7108 H           1 MOL       0.0470
     40 H9         23.2469  -26.7438    6.2385 H           1 MOL       0.0643
     41 H10        24.9200  -26.2757    6.5613 H           1 MOL       0.0643
     42 H11        24.4948  -26.1043    8.7583 H           1 MOL       0.1867
     43 H12        21.6558  -24.8335   13.7227 H           1 MOL       0.1086
     44 H13        23.5817  -24.4064   10.0132 H           1 MOL       0.1563
     45 H14        20.1632  -27.7635   10.2448 H           1 MOL       0.3540
     46 H15        19.7881  -27.4768   12.7009 H           1 MOL       0.3497
     47 H16        22.0095  -33.5556    3.3993 H           1 MOL       0.0660
     48 H17        19.8990  -32.3793    3.1125 H           1 MOL       0.0803
     49 H18        20.1364  -30.8235    6.9220 H           1 MOL       0.0803
     50 H19        22.2483  -31.9697    7.3183 H           1 MOL       0.0660
@<TRIPOS>BOND
     1     1     2   1
     2     1     5   1
     3     1     8   1
     4     2     3   1
     5     2     9   1
     6     3     4   1
     7     3     7   1
     8     4     5   1
     9     5     6   1
    10     6    10   2
    11     7    11   1
    12    10    12   1
    13    11    27  ar
    14    11    31  ar
    15    12    13   1
    16    13    14  am
    17    14    15   1
    18    14    24   2
    19    15    16  ar
    20    15    20  ar
    21    16    17  ar
    22    16    22   1
    23    17    18  ar
    24    17    23   1
    25    18    19  ar
    26    19    20  ar
    27    19    21   1
    28    21    25   2
    29    21    26   2
    30    27    28  ar
    31    28    29  ar
    32    29    30  ar
    33    30    31  ar
    34     1    32   1
    35     2    33   1
    36     3    34   1
    37     5    35   1
    38     6    36   1
    39     8    37   1
    40     9    38   1
    41    10    39   1
    42    12    40   1
    43    12    41   1
    44    13    42   1
    45    18    43   1
    46    20    44   1
    47    22    45   1
    48    23    46   1
    49    27    47   1
    50    28    48   1
    51    30    49   1
    52    31    50   1
@<TRIPOS>SUBSTRUCTURE
     1  MOL      1

