@<TRIPOS>MOLECULE
3oe5_ligand_031
    50    52
SMALL
GAST_HUCK
****
This file was generated by PARSER (from files_GN.cpp)

@<TRIPOS>ATOM
      1 C1         21.7267  -35.0314    5.5061 C.3         1 MOL       0.1170
      2 C2         21.5742  -36.5287    5.8030 C.3         1 MOL       0.1229
      3 C3         20.3720  -36.5760    6.7797 C.3         1 MOL       0.1499
      4 O4         20.0755  -35.2349    7.2099 O.3         1 MOL      -0.3460
      5 C5         21.1271  -34.3696    6.7662 C.3         1 MOL       0.1063
      6 C6         20.5998  -33.0313    6.5320 C.2         1 MOL      -0.0658
      7 S7         18.8892  -37.3653    6.0901 S.3         1 MOL      -0.0558
      8 O8         23.0760  -34.6197    5.2806 O.3         1 MOL      -0.3847
      9 O9         22.7515  -37.0557    6.4158 O.3         1 MOL      -0.3853
     10 C10        20.5707  -32.0746    7.4801 C.2         1 MOL      -0.0744
     11 C11        18.2283  -36.0297    5.1830 C.ar        1 MOL       0.0383
     12 C12        20.1652  -30.7044    7.2194 C.3         1 MOL       0.0473
     13 N13        21.3188  -29.8750    7.0324 N.am        1 MOL      -0.2765
     14 C14        22.2572  -30.0211    6.0981 C.2         1 MOL       0.2411
     15 C15        23.3321  -29.1251    5.9762 C.ar        1 MOL       0.2482
     16 C16        23.4243  -27.9119    6.7107 C.ar        1 MOL       0.3921
     17 C17        24.4922  -27.0189    6.5011 C.ar        1 MOL       0.3797
     18 C18        25.4957  -27.3322    5.5675 C.ar        1 MOL       0.1691
     19 C19        25.4632  -28.5364    4.8225 C.ar        1 MOL       0.2168
     20 C20        24.3729  -29.4104    5.0475 C.ar        1 MOL       0.1162
     21 N21        26.4428  -28.8269    3.9147 N.2         1 MOL      -0.1404
     22 O22        22.4521  -27.5275    7.5731 O.3         1 MOL      -0.1763
     23 O23        24.5061  -25.8354    7.1608 O.3         1 MOL      -0.1825
     24 O24        22.1654  -30.9740    5.3220 O.2         1 MOL      -0.3823
     25 O25        27.4465  -28.0225    3.6831 O.2         1 MOL      -0.4541
     26 O26        26.4403  -29.8407    3.2674 O.2         1 MOL      -0.4541
     27 C27        17.3592  -35.1170    5.8199 C.ar        1 MOL      -0.0217
     28 C28        16.8239  -34.0501    5.0758 C.ar        1 MOL       0.0039
     29 N29        17.1418  -33.9096    3.7675 N.ar        1 MOL      -0.3066
     30 C30        17.9712  -34.7689    3.1223 C.ar        1 MOL       0.0039
     31 C31        18.5283  -35.8621    3.8144 C.ar        1 MOL      -0.0217
     32 H1         21.1389  -34.7841    4.6164 H           1 MOL       0.0667
     33 H2         21.3929  -37.0888    4.8834 H           1 MOL       0.0659
     34 H3         20.6406  -37.1588    7.6654 H           1 MOL       0.0771
     35 H4         21.8998  -34.3469    7.5478 H           1 MOL       0.0748
     36 H5         20.2457  -32.8133    5.6276 H           1 MOL       0.0477
     37 H6         23.3591  -35.0976    4.4713 H           1 MOL       0.2102
     38 H7         22.5716  -38.0180    6.5324 H           1 MOL       0.2101
     39 H8         20.9122  -32.2863    8.3944 H           1 MOL       0.0470
     40 H9         19.6089  -30.3365    8.0896 H           1 MOL       0.0643
     41 H10        19.4952  -30.6232    6.3520 H           1 MOL       0.0643
     42 H11        21.4168  -29.1273    7.6487 H           1 MOL       0.1867
     43 H12        26.2524  -26.6511    5.4204 H           1 MOL       0.1086
     44 H13        24.3437  -30.2884    4.5185 H           1 MOL       0.1563
     45 H14        22.8744  -27.5858    8.4716 H           1 MOL       0.3540
     46 H15        25.4413  -25.6623    7.3795 H           1 MOL       0.3497
     47 H16        17.1192  -35.2199    6.8092 H           1 MOL       0.0660
     48 H17        16.1928  -33.3822    5.5151 H           1 MOL       0.0803
     49 H18        18.1854  -34.6201    2.1344 H           1 MOL       0.0803
     50 H19        19.1466  -36.5120    3.3270 H           1 MOL       0.0660
@<TRIPOS>BOND
     1     1     2   1
     2     1     5   1
     3     1     8   1
     4     2     3   1
     5     2     9   1
     6     3     4   1
     7     3     7   1
     8     4     5   1
     9     5     6   1
    10     6    10   2
    11     7    11   1
    12    10    12   1
    13    11    27  ar
    14    11    31  ar
    15    12    13   1
    16    13    14  am
    17    14    15   1
    18    14    24   2
    19    15    16  ar
    20    15    20  ar
    21    16    17  ar
    22    16    22   1
    23    17    18  ar
    24    17    23   1
    25    18    19  ar
    26    19    20  ar
    27    19    21   1
    28    21    25   2
    29    21    26   2
    30    27    28  ar
    31    28    29  ar
    32    29    30  ar
    33    30    31  ar
    34     1    32   1
    35     2    33   1
    36     3    34   1
    37     5    35   1
    38     6    36   1
    39     8    37   1
    40     9    38   1
    41    10    39   1
    42    12    40   1
    43    12    41   1
    44    13    42   1
    45    18    43   1
    46    20    44   1
    47    22    45   1
    48    23    46   1
    49    27    47   1
    50    28    48   1
    51    30    49   1
    52    31    50   1
@<TRIPOS>SUBSTRUCTURE
     1  MOL      1

