@<TRIPOS>MOLECULE
3oe5_ligand_047
    50    52
SMALL
GAST_HUCK
****
This file was generated by PARSER (from files_GN.cpp)

@<TRIPOS>ATOM
      1 C1         23.9959  -27.1335    6.1410 C.3         1 MOL       0.1170
      2 C2         25.0422  -27.4379    5.0558 C.3         1 MOL       0.1229
      3 C3         25.9621  -28.4949    5.7102 C.3         1 MOL       0.1499
      4 O4         25.1428  -29.2273    6.6506 O.3         1 MOL      -0.3460
      5 C5         24.0235  -28.3941    7.0462 C.3         1 MOL       0.1063
      6 C6         22.8222  -29.2086    6.9171 C.2         1 MOL      -0.0658
      7 S7         26.6682  -29.5794    4.4237 S.3         1 MOL      -0.0558
      8 O8         24.2674  -25.9515    6.9036 O.3         1 MOL      -0.3847
      9 O9         25.7429  -26.2822    4.5941 O.3         1 MOL      -0.3853
     10 C10        21.8374  -29.2469    7.8381 C.2         1 MOL      -0.0744
     11 C11        26.9565  -31.0689    5.2864 C.ar        1 MOL       0.0383
     12 C12        20.6935  -30.1318    7.7305 C.3         1 MOL       0.0473
     13 N13        20.1058  -30.3777    9.0114 N.am        1 MOL      -0.2765
     14 C14        20.3726  -31.4023    9.8178 C.2         1 MOL       0.2411
     15 C15        19.7835  -31.5118   11.0825 C.ar        1 MOL       0.2482
     16 C16        20.4824  -32.0729   12.1877 C.ar        1 MOL       0.3921
     17 C17        19.8561  -32.2205   13.4372 C.ar        1 MOL       0.3797
     18 C18        18.5258  -31.8017   13.6074 C.ar        1 MOL       0.1691
     19 C19        17.7887  -31.2364   12.5444 C.ar        1 MOL       0.2168
     20 C20        18.4408  -31.0984   11.2922 C.ar        1 MOL       0.1162
     21 N21        16.4916  -30.8506   12.7281 N.2         1 MOL      -0.1404
     22 O22        21.7848  -32.4383   12.0866 O.3         1 MOL      -0.1763
     23 O23        20.5374  -32.7598   14.4785 O.3         1 MOL      -0.1825
     24 O24        21.1437  -32.2833    9.4357 O.2         1 MOL      -0.3823
     25 O25        15.8949  -30.9340   13.8892 O.2         1 MOL      -0.4541
     26 O26        15.8107  -30.4170   11.8334 O.2         1 MOL      -0.4541
     27 C27        28.2703  -31.5803    5.3817 C.ar        1 MOL      -0.0217
     28 C28        28.4879  -32.8314    5.9921 C.ar        1 MOL       0.0039
     29 N29        27.4345  -33.5480    6.4555 N.ar        1 MOL      -0.3066
     30 C30        26.1521  -33.1010    6.3569 C.ar        1 MOL       0.0039
     31 C31        25.8837  -31.8466    5.7647 C.ar        1 MOL      -0.0217
     32 H1         23.0151  -26.9833    5.6789 H           1 MOL       0.0667
     33 H2         24.5184  -27.8724    4.2046 H           1 MOL       0.0659
     34 H3         26.7772  -27.9956    6.2544 H           1 MOL       0.0771
     35 H4         24.1705  -28.0850    8.0822 H           1 MOL       0.0748
     36 H5         22.7452  -29.7824    6.0988 H           1 MOL       0.0477
     37 H6         25.2438  -25.9412    7.0718 H           1 MOL       0.2102
     38 H7         26.0719  -25.8300    5.3978 H           1 MOL       0.2101
     39 H8         21.9189  -28.6583    8.6403 H           1 MOL       0.0470
     40 H9         20.9948  -31.0721    7.2543 H           1 MOL       0.0643
     41 H10        19.9538  -29.6603    7.0868 H           1 MOL       0.0643
     42 H11        19.5330  -29.6823    9.3634 H           1 MOL       0.1867
     43 H12        18.0930  -31.9201   14.5286 H           1 MOL       0.1086
     44 H13        17.9141  -30.7089   10.5053 H           1 MOL       0.1563
     45 H14        21.7641  -33.4257   12.0086 H           1 MOL       0.3540
     46 H15        19.8907  -33.3331   14.9641 H           1 MOL       0.3497
     47 H16        29.0782  -31.0556    5.0112 H           1 MOL       0.0660
     48 H17        29.4305  -33.2071    6.0935 H           1 MOL       0.0803
     49 H18        25.3821  -33.6710    6.7146 H           1 MOL       0.0803
     50 H19        24.9201  -31.5030    5.6849 H           1 MOL       0.0660
@<TRIPOS>BOND
     1     1     2   1
     2     1     5   1
     3     1     8   1
     4     2     3   1
     5     2     9   1
     6     3     4   1
     7     3     7   1
     8     4     5   1
     9     5     6   1
    10     6    10   2
    11     7    11   1
    12    10    12   1
    13    11    27  ar
    14    11    31  ar
    15    12    13   1
    16    13    14  am
    17    14    15   1
    18    14    24   2
    19    15    16  ar
    20    15    20  ar
    21    16    17  ar
    22    16    22   1
    23    17    18  ar
    24    17    23   1
    25    18    19  ar
    26    19    20  ar
    27    19    21   1
    28    21    25   2
    29    21    26   2
    30    27    28  ar
    31    28    29  ar
    32    29    30  ar
    33    30    31  ar
    34     1    32   1
    35     2    33   1
    36     3    34   1
    37     5    35   1
    38     6    36   1
    39     8    37   1
    40     9    38   1
    41    10    39   1
    42    12    40   1
    43    12    41   1
    44    13    42   1
    45    18    43   1
    46    20    44   1
    47    22    45   1
    48    23    46   1
    49    27    47   1
    50    28    48   1
    51    30    49   1
    52    31    50   1
@<TRIPOS>SUBSTRUCTURE
     1  MOL      1

