@<TRIPOS>MOLECULE
3oe5_ligand_068
    50    52
SMALL
GAST_HUCK
****
This file was generated by PARSER (from files_GN.cpp)

@<TRIPOS>ATOM
      1 C1         24.9555  -31.2529    4.4344 C.3         1 MOL       0.1170
      2 C2         23.4908  -31.5255    4.0641 C.3         1 MOL       0.1229
      3 C3         22.9175  -31.9833    5.4163 C.3         1 MOL       0.1499
      4 O4         23.6526  -31.2746    6.4280 O.3         1 MOL      -0.3460
      5 C5         24.8218  -30.6610    5.8597 C.3         1 MOL       0.1063
      6 C6         24.7037  -29.2082    5.9129 C.2         1 MOL      -0.0658
      7 S7         21.1381  -31.6672    5.5468 S.3         1 MOL      -0.0558
      8 O8         25.6978  -32.4752    4.4590 O.3         1 MOL      -0.3847
      9 O9         23.3444  -32.4877    3.0197 O.3         1 MOL      -0.3853
     10 C10        24.2097  -28.5540    6.9819 C.2         1 MOL      -0.0744
     11 C11        20.9364  -31.6614    7.2819 C.ar        1 MOL       0.0383
     12 C12        24.1188  -27.1070    7.0487 C.3         1 MOL       0.0473
     13 N13        23.7444  -26.6168    8.3423 N.am        1 MOL      -0.2765
     14 C14        22.5385  -26.6459    8.8927 C.2         1 MOL       0.2411
     15 C15        22.3249  -26.1764   10.1935 C.ar        1 MOL       0.2482
     16 C16        21.4679  -26.8546   11.0983 C.ar        1 MOL       0.3921
     17 C17        21.2216  -26.3404   12.3855 C.ar        1 MOL       0.3797
     18 C18        21.8156  -25.1347   12.7859 C.ar        1 MOL       0.1691
     19 C19        22.7020  -24.4296   11.9352 C.ar        1 MOL       0.2168
     20 C20        22.9479  -24.9821   10.6496 C.ar        1 MOL       0.1162
     21 N21        23.2573  -23.2537   12.3416 N.2         1 MOL      -0.1404
     22 O22        20.8645  -28.0250   10.7656 O.3         1 MOL      -0.1763
     23 O23        20.4051  -26.9866   13.2554 O.3         1 MOL      -0.1825
     24 O24        21.5961  -27.0928    8.2426 O.2         1 MOL      -0.3823
     25 O25        23.0111  -22.7182   13.5099 O.2         1 MOL      -0.4541
     26 O26        24.0157  -22.6170   11.6586 O.2         1 MOL      -0.4541
     27 C27        20.2355  -30.5846    7.8621 C.ar        1 MOL      -0.0217
     28 C28        20.0022  -30.5822    9.2495 C.ar        1 MOL       0.0039
     29 N29        20.4966  -31.5865   10.0195 N.ar        1 MOL      -0.3066
     30 C30        21.2006  -32.6231    9.4992 C.ar        1 MOL       0.0039
     31 C31        21.4150  -32.6969    8.1126 C.ar        1 MOL      -0.0217
     32 H1         25.4309  -30.5725    3.7241 H           1 MOL       0.0667
     33 H2         23.0147  -30.5906    3.7514 H           1 MOL       0.0659
     34 H3         23.0951  -33.0574    5.5436 H           1 MOL       0.0771
     35 H4         25.6845  -30.9486    6.4648 H           1 MOL       0.0748
     36 H5         25.0154  -28.6701    5.1355 H           1 MOL       0.0477
     37 H6         26.6201  -32.2140    4.6560 H           1 MOL       0.2102
     38 H7         22.3924  -32.4675    2.7814 H           1 MOL       0.2101
     39 H8         23.8787  -29.0855    7.7520 H           1 MOL       0.0470
     40 H9         23.4050  -26.7466    6.3016 H           1 MOL       0.0643
     41 H10        25.0982  -26.6854    6.8111 H           1 MOL       0.0643
     42 H11        24.4584  -26.2510    8.8885 H           1 MOL       0.1867
     43 H12        21.5939  -24.7725   13.7162 H           1 MOL       0.1086
     44 H13        23.5593  -24.4712   10.0067 H           1 MOL       0.1563
     45 H14        20.0689  -27.7403   10.2734 H           1 MOL       0.3540
     46 H15        20.8441  -27.8426   13.4448 H           1 MOL       0.3497
     47 H16        19.8923  -29.8083    7.2916 H           1 MOL       0.0660
     48 H17        19.4656  -29.8314    9.6814 H           1 MOL       0.0803
     49 H18        21.5600  -33.3508   10.1191 H           1 MOL       0.0803
     50 H19        21.9199  -33.4967    7.7235 H           1 MOL       0.0660
@<TRIPOS>BOND
     1     1     2   1
     2     1     5   1
     3     1     8   1
     4     2     3   1
     5     2     9   1
     6     3     4   1
     7     3     7   1
     8     4     5   1
     9     5     6   1
    10     6    10   2
    11     7    11   1
    12    10    12   1
    13    11    27  ar
    14    11    31  ar
    15    12    13   1
    16    13    14  am
    17    14    15   1
    18    14    24   2
    19    15    16  ar
    20    15    20  ar
    21    16    17  ar
    22    16    22   1
    23    17    18  ar
    24    17    23   1
    25    18    19  ar
    26    19    20  ar
    27    19    21   1
    28    21    25   2
    29    21    26   2
    30    27    28  ar
    31    28    29  ar
    32    29    30  ar
    33    30    31  ar
    34     1    32   1
    35     2    33   1
    36     3    34   1
    37     5    35   1
    38     6    36   1
    39     8    37   1
    40     9    38   1
    41    10    39   1
    42    12    40   1
    43    12    41   1
    44    13    42   1
    45    18    43   1
    46    20    44   1
    47    22    45   1
    48    23    46   1
    49    27    47   1
    50    28    48   1
    51    30    49   1
    52    31    50   1
@<TRIPOS>SUBSTRUCTURE
     1  MOL      1

