@<TRIPOS>MOLECULE
3oe5_ligand_025
    50    52
SMALL
GAST_HUCK
****
This file was generated by PARSER (from files_GN.cpp)

@<TRIPOS>ATOM
      1 C1         21.5480  -31.1352   12.3560 C.3         1 MOL       0.1170
      2 C2         20.7622  -31.5062   13.6310 C.3         1 MOL       0.1229
      3 C3         20.1388  -32.8779   13.2688 C.3         1 MOL       0.1499
      4 O4         20.3571  -33.1266   11.8704 O.3         1 MOL      -0.3460
      5 C5         20.7833  -31.9109   11.2598 C.3         1 MOL       0.1063
      6 C6         21.5763  -32.2358   10.0857 C.2         1 MOL      -0.0658
      7 S7         20.7400  -34.2778   14.2588 S.3         1 MOL      -0.0558
      8 O8         21.6037  -29.7251   12.1300 O.3         1 MOL      -0.3847
      9 O9         19.7598  -30.5330   13.9262 O.3         1 MOL      -0.3853
     10 C10        21.0926  -32.1512    8.8377 C.2         1 MOL      -0.0744
     11 C11        22.4214  -34.3084   13.7939 C.ar        1 MOL       0.0383
     12 C12        21.8603  -32.4803    7.6432 C.3         1 MOL       0.0473
     13 N13        22.8072  -31.4736    7.2974 N.am        1 MOL      -0.2765
     14 C14        22.5338  -30.2164    6.9677 C.2         1 MOL       0.2411
     15 C15        23.5595  -29.3319    6.6445 C.ar        1 MOL       0.2482
     16 C16        23.5179  -27.9753    7.0381 C.ar        1 MOL       0.3921
     17 C17        24.5558  -27.0921    6.6913 C.ar        1 MOL       0.3797
     18 C18        25.6276  -27.5481    5.9015 C.ar        1 MOL       0.1691
     19 C19        25.6975  -28.8907    5.4665 C.ar        1 MOL       0.2168
     20 C20        24.6616  -29.7690    5.8781 C.ar        1 MOL       0.1162
     21 N21        26.7065  -29.3312    4.6590 N.2         1 MOL      -0.1404
     22 O22        22.4948  -27.4842    7.7934 O.3         1 MOL      -0.1763
     23 O23        24.5124  -25.8061    7.1217 O.3         1 MOL      -0.1825
     24 O24        21.3810  -29.8145    6.9864 O.2         1 MOL      -0.3823
     25 O25        27.6571  -28.5357    4.2379 O.2         1 MOL      -0.4541
     26 O26        26.7853  -30.4650    4.2676 O.2         1 MOL      -0.4541
     27 C27        23.4067  -33.9310   14.7342 C.ar        1 MOL      -0.0217
     28 C28        24.7631  -33.9473   14.3479 C.ar        1 MOL       0.0039
     29 N29        25.1030  -34.3285   13.0911 N.ar        1 MOL      -0.3066
     30 C30        24.1850  -34.7172   12.1753 C.ar        1 MOL       0.0039
     31 C31        22.8227  -34.7438   12.5119 C.ar        1 MOL      -0.0217
     32 H1         22.5765  -31.5037   12.4573 H           1 MOL       0.0667
     33 H2         21.4384  -31.5579   14.4892 H           1 MOL       0.0659
     34 H3         19.0549  -32.8448   13.4159 H           1 MOL       0.0771
     35 H4         19.8850  -31.3451   10.9891 H           1 MOL       0.0748
     36 H5         22.4890  -32.6136   10.2161 H           1 MOL       0.0477
     37 H6         22.2443  -29.6098   11.3939 H           1 MOL       0.2102
     38 H7         19.3713  -30.8041   14.7848 H           1 MOL       0.2101
     39 H8         20.1743  -31.7917    8.6970 H           1 MOL       0.0470
     40 H9         21.1755  -32.6279    6.7966 H           1 MOL       0.0643
     41 H10        22.3976  -33.4221    7.7957 H           1 MOL       0.0643
     42 H11        23.7375  -31.7472    7.2958 H           1 MOL       0.1867
     43 H12        26.3560  -26.8786    5.6334 H           1 MOL       0.1086
     44 H13        24.6918  -30.7444    5.5575 H           1 MOL       0.1563
     45 H14        22.8130  -27.5505    8.7138 H           1 MOL       0.3540
     46 H15        25.4463  -25.5492    7.2530 H           1 MOL       0.3497
     47 H16        23.1513  -33.6462   15.6825 H           1 MOL       0.0660
     48 H17        25.4882  -33.6721   15.0101 H           1 MOL       0.0803
     49 H18        24.4849  -34.9935   11.2355 H           1 MOL       0.0803
     50 H19        22.1415  -35.0629   11.8243 H           1 MOL       0.0660
@<TRIPOS>BOND
     1     1     2   1
     2     1     5   1
     3     1     8   1
     4     2     3   1
     5     2     9   1
     6     3     4   1
     7     3     7   1
     8     4     5   1
     9     5     6   1
    10     6    10   2
    11     7    11   1
    12    10    12   1
    13    11    27  ar
    14    11    31  ar
    15    12    13   1
    16    13    14  am
    17    14    15   1
    18    14    24   2
    19    15    16  ar
    20    15    20  ar
    21    16    17  ar
    22    16    22   1
    23    17    18  ar
    24    17    23   1
    25    18    19  ar
    26    19    20  ar
    27    19    21   1
    28    21    25   2
    29    21    26   2
    30    27    28  ar
    31    28    29  ar
    32    29    30  ar
    33    30    31  ar
    34     1    32   1
    35     2    33   1
    36     3    34   1
    37     5    35   1
    38     6    36   1
    39     8    37   1
    40     9    38   1
    41    10    39   1
    42    12    40   1
    43    12    41   1
    44    13    42   1
    45    18    43   1
    46    20    44   1
    47    22    45   1
    48    23    46   1
    49    27    47   1
    50    28    48   1
    51    30    49   1
    52    31    50   1
@<TRIPOS>SUBSTRUCTURE
     1  MOL      1

