@<TRIPOS>MOLECULE
3oe5_ligand_010
    50    52
SMALL
GAST_HUCK
****
This file was generated by PARSER (from files_GN.cpp)

@<TRIPOS>ATOM
      1 C1         19.8925  -32.5290   12.8159 C.3         1 MOL       0.1170
      2 C2         18.5837  -32.8571   13.5423 C.3         1 MOL       0.1229
      3 C3         17.8008  -31.5308   13.4221 C.3         1 MOL       0.1499
      4 O4         18.7701  -30.4756   13.3793 O.3         1 MOL      -0.3460
      5 C5         20.0698  -31.0357   13.1283 C.3         1 MOL       0.1063
      6 C6         20.7735  -30.3401   12.0489 C.2         1 MOL      -0.0658
      7 S7         16.8367  -31.4264   11.8815 S.3         1 MOL      -0.0558
      8 O8         21.0024  -33.3188   13.2429 O.3         1 MOL      -0.3847
      9 O9         18.8016  -33.2117   14.9110 O.3         1 MOL      -0.3853
     10 C10        20.1806  -29.9310   10.9405 C.2         1 MOL      -0.0744
     11 C11        15.2899  -31.0391   12.5664 C.ar        1 MOL       0.0383
     12 C12        20.7781  -28.9606   10.0185 C.3         1 MOL       0.0473
     13 N13        20.9544  -27.6067   10.4771 N.am        1 MOL      -0.2765
     14 C14        20.8116  -27.0506   11.6599 C.2         1 MOL       0.2411
     15 C15        21.0528  -25.7262   11.8149 C.ar        1 MOL       0.2482
     16 C16        20.0018  -24.7937   11.6654 C.ar        1 MOL       0.3921
     17 C17        20.2360  -23.4401   11.9579 C.ar        1 MOL       0.3797
     18 C18        21.4904  -23.0355   12.4513 C.ar        1 MOL       0.1691
     19 C19        22.5539  -23.9574   12.6289 C.ar        1 MOL       0.2168
     20 C20        22.3118  -25.3068   12.2882 C.ar        1 MOL       0.1162
     21 N21        23.7613  -23.5598   13.1218 N.2         1 MOL      -0.1404
     22 O22        18.7669  -25.2093   11.2699 O.3         1 MOL      -0.1763
     23 O23        19.2429  -22.5398   11.7510 O.3         1 MOL      -0.1825
     24 O24        20.4660  -27.6110   12.7094 O.2         1 MOL      -0.3823
     25 O25        23.9835  -22.3273   13.4719 O.2         1 MOL      -0.4541
     26 O26        24.6725  -24.3257   13.3162 O.2         1 MOL      -0.4541
     27 C27        14.9530  -29.7036   12.8703 C.ar        1 MOL      -0.0217
     28 C28        13.6948  -29.4344   13.4362 C.ar        1 MOL       0.0039
     29 N29        12.8347  -30.4554   13.6816 N.ar        1 MOL      -0.3066
     30 C30        13.1297  -31.7506   13.4004 C.ar        1 MOL       0.0039
     31 C31        14.3698  -32.0739   12.8255 C.ar        1 MOL      -0.0217
     32 H1         19.7485  -32.6882   11.7411 H           1 MOL       0.0667
     33 H2         18.0719  -33.6919   13.0586 H           1 MOL       0.0659
     34 H3         17.1639  -31.3967   14.3014 H           1 MOL       0.0771
     35 H4         20.6383  -30.9298   14.0557 H           1 MOL       0.0748
     36 H5         21.7049  -30.0090   12.2633 H           1 MOL       0.0477
     37 H6         21.7619  -32.9873   12.7152 H           1 MOL       0.2102
     38 H7         18.8780  -32.3718   15.4087 H           1 MOL       0.2101
     39 H8         19.2515  -30.2100   10.7421 H           1 MOL       0.0470
     40 H9         20.1483  -28.9103    9.1269 H           1 MOL       0.0643
     41 H10        21.7501  -29.3403    9.6877 H           1 MOL       0.0643
     42 H11        21.2149  -26.9915    9.7662 H           1 MOL       0.1867
     43 H12        21.6190  -22.0566   12.6775 H           1 MOL       0.1086
     44 H13        23.0548  -26.0075   12.4091 H           1 MOL       0.1563
     45 H14        18.1298  -24.5695   11.6446 H           1 MOL       0.3540
     46 H15        19.3204  -21.8853   12.4684 H           1 MOL       0.3497
     47 H16        15.6083  -28.9376   12.6965 H           1 MOL       0.0660
     48 H17        13.4243  -28.4768   13.6688 H           1 MOL       0.0803
     49 H18        12.4489  -32.4832   13.6088 H           1 MOL       0.0803
     50 H19        14.5968  -33.0489   12.6125 H           1 MOL       0.0660
@<TRIPOS>BOND
     1     1     2   1
     2     1     5   1
     3     1     8   1
     4     2     3   1
     5     2     9   1
     6     3     4   1
     7     3     7   1
     8     4     5   1
     9     5     6   1
    10     6    10   2
    11     7    11   1
    12    10    12   1
    13    11    27  ar
    14    11    31  ar
    15    12    13   1
    16    13    14  am
    17    14    15   1
    18    14    24   2
    19    15    16  ar
    20    15    20  ar
    21    16    17  ar
    22    16    22   1
    23    17    18  ar
    24    17    23   1
    25    18    19  ar
    26    19    20  ar
    27    19    21   1
    28    21    25   2
    29    21    26   2
    30    27    28  ar
    31    28    29  ar
    32    29    30  ar
    33    30    31  ar
    34     1    32   1
    35     2    33   1
    36     3    34   1
    37     5    35   1
    38     6    36   1
    39     8    37   1
    40     9    38   1
    41    10    39   1
    42    12    40   1
    43    12    41   1
    44    13    42   1
    45    18    43   1
    46    20    44   1
    47    22    45   1
    48    23    46   1
    49    27    47   1
    50    28    48   1
    51    30    49   1
    52    31    50   1
@<TRIPOS>SUBSTRUCTURE
     1  MOL      1

