@<TRIPOS>MOLECULE
3oe5_ligand_023
    50    52
SMALL
GAST_HUCK
****
This file was generated by PARSER (from files_GN.cpp)

@<TRIPOS>ATOM
      1 C1         19.6303  -31.5958   13.6161 C.3         1 MOL       0.1170
      2 C2         19.6007  -32.8445   14.5088 C.3         1 MOL       0.1229
      3 C3         20.3227  -33.9084   13.6410 C.3         1 MOL       0.1499
      4 O4         20.4286  -33.3806   12.3059 O.3         1 MOL      -0.3460
      5 C5         19.6299  -32.1948   12.1954 C.3         1 MOL       0.1063
      6 C6         20.1767  -31.3760   11.1200 C.2         1 MOL      -0.0658
      7 S7         21.9324  -34.3829   14.3447 S.3         1 MOL      -0.0558
      8 O8         18.5153  -30.7249   13.7970 O.3         1 MOL      -0.3847
      9 O9         18.2590  -33.2501   14.7871 O.3         1 MOL      -0.3853
     10 C10        20.1292  -30.0334   11.0756 C.2         1 MOL      -0.0744
     11 C11        23.0345  -33.8653   13.0949 C.ar        1 MOL       0.0383
     12 C12        20.8001  -29.2525   10.0499 C.3         1 MOL       0.0473
     13 N13        20.9171  -27.8732   10.4085 N.am        1 MOL      -0.2765
     14 C14        21.4196  -27.3829   11.5386 C.2         1 MOL       0.2411
     15 C15        21.4304  -26.0074   11.8097 C.ar        1 MOL       0.2482
     16 C16        20.2719  -25.1870   11.6985 C.ar        1 MOL       0.3921
     17 C17        20.3397  -23.8028   11.9631 C.ar        1 MOL       0.3797
     18 C18        21.5446  -23.2315   12.4115 C.ar        1 MOL       0.1691
     19 C19        22.7145  -24.0128   12.5692 C.ar        1 MOL       0.2168
     20 C20        22.6346  -25.3879   12.2370 C.ar        1 MOL       0.1162
     21 N21        23.8776  -23.4604   13.0196 N.2         1 MOL      -0.1404
     22 O22        19.0601  -25.7441   11.4169 O.3         1 MOL      -0.1763
     23 O23        19.2383  -23.0156   11.8051 O.3         1 MOL      -0.1825
     24 O24        21.9014  -28.1708   12.3499 O.2         1 MOL      -0.3823
     25 O25        23.9737  -22.2044   13.3567 O.2         1 MOL      -0.4541
     26 O26        24.8784  -24.1035   13.1764 O.2         1 MOL      -0.4541
     27 C27        23.9921  -32.8675   13.3701 C.ar        1 MOL      -0.0217
     28 C28        24.8810  -32.4684   12.3602 C.ar        1 MOL       0.0039
     29 N29        24.8151  -33.0546   11.1339 N.ar        1 MOL      -0.3066
     30 C30        23.9224  -34.0303   10.8377 C.ar        1 MOL       0.0039
     31 C31        23.0119  -34.4679   11.8207 C.ar        1 MOL      -0.0217
     32 H1         20.5569  -31.0432   13.7975 H           1 MOL       0.0667
     33 H2         20.1022  -32.6472   15.4593 H           1 MOL       0.0659
     34 H3         19.7200  -34.8232   13.5838 H           1 MOL       0.0771
     35 H4         18.6087  -32.4824   11.9220 H           1 MOL       0.0748
     36 H5         20.6213  -31.8581   10.3667 H           1 MOL       0.0477
     37 H6         18.5921  -30.3756   14.7066 H           1 MOL       0.2102
     38 H7         18.3468  -34.0644   15.3273 H           1 MOL       0.2101
     39 H8         19.6390  -29.5448   11.7903 H           1 MOL       0.0470
     40 H9         20.2278  -29.3181    9.1211 H           1 MOL       0.0643
     41 H10        21.7980  -29.6573    9.8690 H           1 MOL       0.0643
     42 H11        20.6122  -27.2357    9.7538 H           1 MOL       0.1867
     43 H12        21.5555  -22.2332   12.6335 H           1 MOL       0.1086
     44 H13        23.4809  -25.9596   12.3079 H           1 MOL       0.1563
     45 H14        18.4037  -25.0192   11.3251 H           1 MOL       0.3540
     46 H15        19.2692  -22.3233   12.5010 H           1 MOL       0.3497
     47 H16        24.0358  -32.4183   14.2903 H           1 MOL       0.0660
     48 H17        25.5643  -31.7305   12.5279 H           1 MOL       0.0803
     49 H18        23.9054  -34.4337    9.8976 H           1 MOL       0.0803
     50 H19        22.3340  -35.2005   11.5930 H           1 MOL       0.0660
@<TRIPOS>BOND
     1     1     2   1
     2     1     5   1
     3     1     8   1
     4     2     3   1
     5     2     9   1
     6     3     4   1
     7     3     7   1
     8     4     5   1
     9     5     6   1
    10     6    10   2
    11     7    11   1
    12    10    12   1
    13    11    27  ar
    14    11    31  ar
    15    12    13   1
    16    13    14  am
    17    14    15   1
    18    14    24   2
    19    15    16  ar
    20    15    20  ar
    21    16    17  ar
    22    16    22   1
    23    17    18  ar
    24    17    23   1
    25    18    19  ar
    26    19    20  ar
    27    19    21   1
    28    21    25   2
    29    21    26   2
    30    27    28  ar
    31    28    29  ar
    32    29    30  ar
    33    30    31  ar
    34     1    32   1
    35     2    33   1
    36     3    34   1
    37     5    35   1
    38     6    36   1
    39     8    37   1
    40     9    38   1
    41    10    39   1
    42    12    40   1
    43    12    41   1
    44    13    42   1
    45    18    43   1
    46    20    44   1
    47    22    45   1
    48    23    46   1
    49    27    47   1
    50    28    48   1
    51    30    49   1
    52    31    50   1
@<TRIPOS>SUBSTRUCTURE
     1  MOL      1

