@<TRIPOS>MOLECULE
3oe5_ligand_077
    50    52
SMALL
GAST_HUCK
****
This file was generated by PARSER (from files_GN.cpp)

@<TRIPOS>ATOM
      1 C1         20.8327  -33.3380   12.7711 C.3         1 MOL       0.1170
      2 C2         22.0138  -33.5450   13.7310 C.3         1 MOL       0.1229
      3 C3         23.1311  -33.9971   12.7663 C.3         1 MOL       0.1499
      4 O4         22.9175  -33.2499   11.5618 O.3         1 MOL      -0.3460
      5 C5         21.5435  -32.8252   11.4938 C.3         1 MOL       0.1063
      6 C6         21.4775  -31.3751   11.3573 C.2         1 MOL      -0.0658
      7 S7         24.8460  -33.6930   13.2684 S.3         1 MOL      -0.0558
      8 O8         20.1330  -34.5510   12.4819 O.3         1 MOL      -0.3847
      9 O9         21.7148  -34.4786   14.7674 O.3         1 MOL      -0.3853
     10 C10        20.3801  -30.7489   10.9023 C.2         1 MOL      -0.0744
     11 C11        24.7957  -34.1992   14.9341 C.ar        1 MOL       0.0383
     12 C12        20.3208  -29.3163   10.6854 C.3         1 MOL       0.0473
     13 N13        21.3380  -28.8333    9.7963 N.am        1 MOL      -0.2765
     14 C14        21.5179  -29.1599    8.5176 C.2         1 MOL       0.2411
     15 C15        22.5719  -28.6298    7.7488 C.ar        1 MOL       0.2482
     16 C16        23.1461  -27.3575    8.0128 C.ar        1 MOL       0.3921
     17 C17        24.1692  -26.8378    7.1934 C.ar        1 MOL       0.3797
     18 C18        24.6732  -27.5944    6.1217 C.ar        1 MOL       0.1691
     19 C19        24.1591  -28.8815    5.8362 C.ar        1 MOL       0.2168
     20 C20        23.1044  -29.3682    6.6561 C.ar        1 MOL       0.1162
     21 N21        24.6675  -29.6128    4.7988 N.2         1 MOL      -0.1404
     22 O22        22.7071  -26.5802    9.0362 O.3         1 MOL      -0.1763
     23 O23        24.6047  -25.5765    7.3942 O.3         1 MOL      -0.1825
     24 O24        20.7674  -29.9864    8.0099 O.2         1 MOL      -0.3823
     25 O25        25.6376  -29.1719    4.0393 O.2         1 MOL      -0.4541
     26 O26        24.2472  -30.7028    4.5160 O.2         1 MOL      -0.4541
     27 C27        24.4317  -35.5107   15.3114 C.ar        1 MOL      -0.0217
     28 C28        24.3284  -35.8223   16.6804 C.ar        1 MOL       0.0039
     29 N29        24.6097  -34.8766   17.6132 N.ar        1 MOL      -0.3066
     30 C30        24.9946  -33.6171   17.2830 C.ar        1 MOL       0.0039
     31 C31        25.0958  -33.2497   15.9306 C.ar        1 MOL      -0.0217
     32 H1         20.1122  -32.6278   13.1925 H           1 MOL       0.0667
     33 H2         22.2830  -32.5868   14.1871 H           1 MOL       0.0659
     34 H3         23.0212  -35.0611   12.5394 H           1 MOL       0.0771
     35 H4         21.1161  -33.2838   10.5985 H           1 MOL       0.0748
     36 H5         22.2761  -30.8379   11.6145 H           1 MOL       0.0477
     37 H6         19.7355  -34.8381   13.3311 H           1 MOL       0.2102
     38 H7         21.5963  -35.3410   14.3165 H           1 MOL       0.2101
     39 H8         19.5713  -31.2861   10.6920 H           1 MOL       0.0470
     40 H9         20.4405  -28.8210   11.6517 H           1 MOL       0.0643
     41 H10        19.3369  -29.0413   10.2958 H           1 MOL       0.0643
     42 H11        21.9795  -28.2146   10.1777 H           1 MOL       0.1867
     43 H12        25.4164  -27.1868    5.5505 H           1 MOL       0.1086
     44 H13        22.7314  -30.3036    6.4575 H           1 MOL       0.1563
     45 H14        23.5280  -26.1978    9.4288 H           1 MOL       0.3540
     46 H15        25.5853  -25.6297    7.4248 H           1 MOL       0.3497
     47 H16        24.2038  -36.2194   14.6114 H           1 MOL       0.0660
     48 H17        24.0223  -36.7499   16.9786 H           1 MOL       0.0803
     49 H18        25.1888  -32.9361   18.0182 H           1 MOL       0.0803
     50 H19        25.3644  -32.2936   15.6847 H           1 MOL       0.0660
@<TRIPOS>BOND
     1     1     2   1
     2     1     5   1
     3     1     8   1
     4     2     3   1
     5     2     9   1
     6     3     4   1
     7     3     7   1
     8     4     5   1
     9     5     6   1
    10     6    10   2
    11     7    11   1
    12    10    12   1
    13    11    27  ar
    14    11    31  ar
    15    12    13   1
    16    13    14  am
    17    14    15   1
    18    14    24   2
    19    15    16  ar
    20    15    20  ar
    21    16    17  ar
    22    16    22   1
    23    17    18  ar
    24    17    23   1
    25    18    19  ar
    26    19    20  ar
    27    19    21   1
    28    21    25   2
    29    21    26   2
    30    27    28  ar
    31    28    29  ar
    32    29    30  ar
    33    30    31  ar
    34     1    32   1
    35     2    33   1
    36     3    34   1
    37     5    35   1
    38     6    36   1
    39     8    37   1
    40     9    38   1
    41    10    39   1
    42    12    40   1
    43    12    41   1
    44    13    42   1
    45    18    43   1
    46    20    44   1
    47    22    45   1
    48    23    46   1
    49    27    47   1
    50    28    48   1
    51    30    49   1
    52    31    50   1
@<TRIPOS>SUBSTRUCTURE
     1  MOL      1

