@<TRIPOS>MOLECULE
3ov1_ligand_032
    58    59
SMALL
GAST_HUCK
****
This file was generated by PARSER (from files_GN.cpp)

@<TRIPOS>ATOM
      1 C         -15.3668   13.4990    0.6548 C.2         1 ACT       0.1753
      2 O         -15.7663   12.4145    0.2006 O.2         1 ACT      -0.3972
      3 CH3       -16.1046   14.0975    1.7309 C.3         1 ACT       0.0258
      4 N         -14.2832   14.0859    0.1824 N.am        1 ACT      -0.2628
      5 CA        -13.4253   13.6579   -0.8953 C.3         1 ACT       0.1465
      6 C         -14.1876   13.3712   -2.1079 C.2         1 ACT       0.2045
      7 O         -13.9482   12.3328   -2.7405 O.2         1 ACT      -0.3944
      8 CB        -12.4198   12.5682   -0.3876 C.3         1 ACT       0.0400
      9 CG        -11.5849   11.8316   -1.3898 C.ar        1 ACT      -0.0004
     10 CD1       -11.2013   10.4875   -1.1364 C.ar        1 ACT      -0.0239
     11 CD2       -11.1158   12.4428   -2.5800 C.ar        1 ACT      -0.0239
     12 CE1       -10.4327    9.7631   -2.0696 C.ar        1 ACT       0.0115
     13 CE2       -10.3243   11.7259   -3.5041 C.ar        1 ACT       0.0115
     14 CZ        -10.0190   10.3630   -3.2726 C.ar        1 ACT       0.1728
     15 OH         -9.2756    9.6355   -4.1627 O.3         1 ACT      -0.2040
     16 P         -10.0758    9.1813   -5.4223 P.3         1 ACT       0.1348
     17 O1P       -10.1629   10.2299   -6.4012 O.co2       1 ACT      -0.6653
     18 O2P        -9.3355    8.1011   -6.0451 O.co2       1 ACT      -0.6653
     19 O3P       -11.3907    8.6731   -5.1407 O.co2       1 ACT      -0.6653
     20 CB        -15.4225   15.5159   -4.7935 C.3         1 ACT      -0.0184
     21 CG        -14.7010   14.2056   -5.1378 C.3         1 ACT      -0.0184
     22 CA        -15.6272   14.2755   -3.8929 C.3         1 ACT       0.1329
     23 C         -16.9611   13.6904   -3.9051 C.2         1 ACT       0.2267
     24 O         -17.5309   13.5152   -4.9938 O.2         1 ACT      -0.3419
     25 N         -14.9155   14.3406   -2.6474 N.am        1 ACT      -0.2738
     26 N         -17.5748   13.4583   -2.7629 N.am        1 ACT      -0.2608
     27 CA        -18.8406   12.8308   -2.4484 C.3         1 ACT       0.1474
     28 C         -18.7756   12.4910   -1.0256 C.2         1 ACT       0.2017
     29 O         -18.6008   13.3888   -0.2047 O.2         1 ACT      -0.3945
     30 CB        -19.3857   11.6427   -3.3220 C.3         1 ACT       0.0774
     31 CG        -19.8855   11.9780   -4.6495 C.2         1 ACT       0.1781
     32 OD1       -20.5493   12.9837   -4.8341 O.2         1 ACT      -0.3970
     33 ND2       -19.8247   11.1086   -5.6382 N.am        1 ACT      -0.3007
     34 N         -18.9058   11.2804   -0.5352 N.am        1 ACT      -0.2988
     35 H1        -15.6588   15.0514    2.0452 H           1 ACT       0.0467
     36 H2        -16.1216   13.4258    2.5940 H           1 ACT       0.0467
     37 H3        -17.1318   14.2932    1.4116 H           1 ACT       0.0467
     38 H4        -14.0501   14.9355    0.5992 H           1 ACT       0.1885
     39 H5        -12.8217   14.5425   -1.1247 H           1 ACT       0.0840
     40 H6        -12.9881   11.8390    0.1938 H           1 ACT       0.0584
     41 H7        -11.7175   13.0369    0.3116 H           1 ACT       0.0584
     42 H8        -11.4781   10.0245   -0.2679 H           1 ACT       0.0703
     43 H9        -11.3434   13.4125   -2.7953 H           1 ACT       0.0703
     44 H10       -10.1742    8.7932   -1.8670 H           1 ACT       0.0736
     45 H11       -10.0039   12.1822   -4.3540 H           1 ACT       0.0736
     46 H12       -16.2326   15.7775   -5.4822 H           1 ACT       0.0276
     47 H13       -14.7848   16.3074   -4.3980 H           1 ACT       0.0276
     48 H14       -13.6218   14.2267   -4.9657 H           1 ACT       0.0276
     49 H15       -15.0725   13.6920   -6.0252 H           1 ACT       0.0276
     50 H16       -14.9909   15.1808   -2.1475 H           1 ACT       0.1839
     51 H17       -17.0609   13.7223   -1.9754 H           1 ACT       0.1891
     52 H18       -19.5852   13.6251   -2.5322 H           1 ACT       0.0828
     53 H19       -20.2385   11.2050   -2.7966 H           1 ACT       0.0551
     54 H20       -18.6200   10.8644   -3.3894 H           1 ACT       0.0551
     55 H21       -20.2479   11.3157   -6.4878 H           1 ACT       0.1814
     56 H22       -19.3916   10.2475   -5.5187 H           1 ACT       0.1814
     57 H23       -18.8631   11.1409    0.4253 H           1 ACT       0.1815
     58 H24       -19.0661   10.5165   -1.1150 H           1 ACT       0.1815
@<TRIPOS>BOND
     1     1     2   2
     2     1     3   1
     3     4     1  am
     4     5     4   1
     5     6     5   1
     6     5     8   1
     7     6     7   2
     8    25     6  am
     9     8     9   1
    10     9    10  ar
    11     9    11  ar
    12    10    12  ar
    13    11    13  ar
    14    12    14  ar
    15    13    14  ar
    16    14    15   1
    17    15    16   1
    18    16    17  ar
    19    16    18  ar
    20    16    19  ar
    21    21    20   1
    22    22    20   1
    23    22    21   1
    24    22    23   1
    25    22    25   1
    26    23    24   2
    27    23    26  am
    28    26    27   1
    29    27    28   1
    30    27    30   1
    31    28    29   2
    32    28    34  am
    33    30    31   1
    34    31    32   2
    35    31    33  am
    36     3    35   1
    37     3    36   1
    38     3    37   1
    39     4    38   1
    40     5    39   1
    41     8    40   1
    42     8    41   1
    43    10    42   1
    44    11    43   1
    45    12    44   1
    46    13    45   1
    47    20    46   1
    48    20    47   1
    49    21    48   1
    50    21    49   1
    51    25    50   1
    52    26    51   1
    53    27    52   1
    54    30    53   1
    55    30    54   1
    56    33    55   1
    57    33    56   1
    58    34    57   1
    59    34    58   1
@<TRIPOS>SUBSTRUCTURE
     1  ACT      1

