@<TRIPOS>MOLECULE
3ov1_ligand_025
    58    59
SMALL
GAST_HUCK
****
This file was generated by PARSER (from files_GN.cpp)

@<TRIPOS>ATOM
      1 C         -10.5484   14.1699    2.4211 C.2         1 ACT       0.1753
      2 O         -10.5893   14.8479    3.4415 O.2         1 ACT      -0.3972
      3 CH3       -10.0065   14.7915    1.2357 C.3         1 ACT       0.0258
      4 N         -10.9780   12.9118    2.3905 N.am        1 ACT      -0.2628
      5 CA        -11.5151   12.1076    3.4645 C.3         1 ACT       0.1465
      6 C         -12.6594   12.7336    4.1324 C.2         1 ACT       0.2045
      7 O         -12.4153   13.4662    5.0802 O.2         1 ACT      -0.3944
      8 CB        -10.4307   11.5093    4.4326 C.3         1 ACT       0.0400
      9 CG         -9.3009   12.4175    4.7781 C.ar        1 ACT      -0.0004
     10 CD1        -8.2195   12.5773    3.8801 C.ar        1 ACT      -0.0239
     11 CD2        -9.3035   13.1718    5.9741 C.ar        1 ACT      -0.0239
     12 CE1        -7.2028   13.5138    4.1392 C.ar        1 ACT       0.0115
     13 CE2        -8.2864   14.1129    6.2310 C.ar        1 ACT       0.0115
     14 CZ         -7.2503   14.3174    5.2966 C.ar        1 ACT       0.1728
     15 OH         -6.2513   15.2169    5.5585 O.3         1 ACT      -0.2040
     16 P          -6.3133   16.5114    4.6961 P.3         1 ACT       0.1348
     17 O1P        -7.4717   17.3158    4.9945 O.co2       1 ACT      -0.6653
     18 O2P        -5.1562   17.3033    5.0182 O.co2       1 ACT      -0.6653
     19 O3P        -6.2566   16.2431    3.2815 O.co2       1 ACT      -0.6653
     20 CB        -15.3390   13.1614    5.7594 C.3         1 ACT      -0.0184
     21 CG        -15.2335   14.4054    4.8659 C.3         1 ACT      -0.0184
     22 CA        -15.1677   12.9936    4.2313 C.3         1 ACT       0.1329
     23 C         -16.3707   12.4580    3.6093 C.2         1 ACT       0.2267
     24 O         -16.5448   11.2447    3.6525 O.2         1 ACT      -0.3419
     25 N         -13.9085   12.4949    3.7227 N.am        1 ACT      -0.2738
     26 N         -17.2694   13.2691    3.0700 N.am        1 ACT      -0.2608
     27 CA        -18.5620   12.9376    2.5223 C.3         1 ACT       0.1474
     28 C         -18.5023   13.0435    1.0667 C.2         1 ACT       0.2017
     29 O         -18.1577   14.0833    0.5180 O.2         1 ACT      -0.3945
     30 CB        -19.6648   13.8892    3.1116 C.3         1 ACT       0.0774
     31 CG        -20.2507   13.4796    4.3848 C.2         1 ACT       0.1781
     32 OD1       -19.5794   12.9476    5.2596 O.2         1 ACT      -0.3970
     33 ND2       -21.5079   13.7518    4.6634 N.am        1 ACT      -0.3007
     34 N         -18.9163   12.0632    0.2935 N.am        1 ACT      -0.2988
     35 H1         -9.9547   14.0947    0.3970 H           1 ACT       0.0467
     36 H2         -8.9996   15.1587    1.4386 H           1 ACT       0.0467
     37 H3        -10.6365   15.6335    0.9462 H           1 ACT       0.0467
     38 H4        -10.9187   12.4728    1.5271 H           1 ACT       0.1885
     39 H5        -11.9169   11.2338    2.9455 H           1 ACT       0.0840
     40 H6        -10.0108   10.6086    3.9755 H           1 ACT       0.0584
     41 H7        -10.9124   11.1620    5.3496 H           1 ACT       0.0584
     42 H8         -8.1767   12.0302    3.0174 H           1 ACT       0.0703
     43 H9        -10.0535   13.0530    6.6590 H           1 ACT       0.0703
     44 H10        -6.4341   13.6201    3.4753 H           1 ACT       0.0736
     45 H11        -8.3098   14.6567    7.0963 H           1 ACT       0.0736
     46 H12       -16.3281   13.0312    6.1974 H           1 ACT       0.0276
     47 H13       -14.4817   13.0029    6.4096 H           1 ACT       0.0276
     48 H14       -14.3129   14.9716    4.9956 H           1 ACT       0.0276
     49 H15       -16.1626   14.9680    4.7848 H           1 ACT       0.0276
     50 H16       -13.9793   11.8898    2.9623 H           1 ACT       0.1839
     51 H17       -17.0389   14.2100    3.0531 H           1 ACT       0.1891
     52 H18       -18.8316   11.9113    2.7733 H           1 ACT       0.0828
     53 H19       -20.4828   13.9753    2.3889 H           1 ACT       0.0551
     54 H20       -19.2531   14.8922    3.2407 H           1 ACT       0.0551
     55 H21       -21.8825   13.5083    5.5231 H           1 ACT       0.1814
     56 H22       -22.0634   14.2076    4.0119 H           1 ACT       0.1814
     57 H23       -18.9084   12.1679   -0.6712 H           1 ACT       0.1815
     58 H24       -19.2567   11.2425    0.6828 H           1 ACT       0.1815
@<TRIPOS>BOND
     1     1     2   2
     2     1     3   1
     3     4     1  am
     4     5     4   1
     5     6     5   1
     6     5     8   1
     7     6     7   2
     8    25     6  am
     9     8     9   1
    10     9    10  ar
    11     9    11  ar
    12    10    12  ar
    13    11    13  ar
    14    12    14  ar
    15    13    14  ar
    16    14    15   1
    17    15    16   1
    18    16    17  ar
    19    16    18  ar
    20    16    19  ar
    21    21    20   1
    22    22    20   1
    23    22    21   1
    24    22    23   1
    25    22    25   1
    26    23    24   2
    27    23    26  am
    28    26    27   1
    29    27    28   1
    30    27    30   1
    31    28    29   2
    32    28    34  am
    33    30    31   1
    34    31    32   2
    35    31    33  am
    36     3    35   1
    37     3    36   1
    38     3    37   1
    39     4    38   1
    40     5    39   1
    41     8    40   1
    42     8    41   1
    43    10    42   1
    44    11    43   1
    45    12    44   1
    46    13    45   1
    47    20    46   1
    48    20    47   1
    49    21    48   1
    50    21    49   1
    51    25    50   1
    52    26    51   1
    53    27    52   1
    54    30    53   1
    55    30    54   1
    56    33    55   1
    57    33    56   1
    58    34    57   1
    59    34    58   1
@<TRIPOS>SUBSTRUCTURE
     1  ACT      1

