@<TRIPOS>MOLECULE
3ov1_ligand_083
    58    59
SMALL
GAST_HUCK
****
This file was generated by PARSER (from files_GN.cpp)

@<TRIPOS>ATOM
      1 C         -10.8535   10.5599   -2.8781 C.2         1 ACT       0.1753
      2 O         -12.0253   10.6683   -2.5400 O.2         1 ACT      -0.3972
      3 CH3        -9.9760    9.8109   -2.0086 C.3         1 ACT       0.0258
      4 N         -10.3837   11.1170   -3.9894 N.am        1 ACT      -0.2628
      5 CA        -11.1191   11.8778   -4.9664 C.3         1 ACT       0.1465
      6 C         -11.1897   11.1644   -6.2404 C.2         1 ACT       0.2045
      7 O         -10.2884   10.3967   -6.5539 O.2         1 ACT      -0.3944
      8 CB        -10.5278   13.3170   -5.0958 C.3         1 ACT       0.0400
      9 CG         -9.0999   13.4281   -5.5181 C.ar        1 ACT      -0.0004
     10 CD1        -8.1387   14.0534   -4.6883 C.ar        1 ACT      -0.0239
     11 CD2        -8.6911   12.9683   -6.7925 C.ar        1 ACT      -0.0239
     12 CE1        -6.8004   14.1804   -5.1046 C.ar        1 ACT       0.0115
     13 CE2        -7.3502   13.0815   -7.2035 C.ar        1 ACT       0.0115
     14 CZ         -6.3912   13.6690   -6.3549 C.ar        1 ACT       0.1728
     15 OH         -5.1057   13.8228   -6.7963 O.3         1 ACT      -0.2040
     16 P          -4.2442   12.5339   -6.6865 P.3         1 ACT       0.1348
     17 O1P        -3.0642   12.7547   -7.4913 O.co2       1 ACT      -0.6653
     18 O2P        -3.7987   12.2640   -5.3372 O.co2       1 ACT      -0.6653
     19 O3P        -4.9024   11.3700   -7.2328 O.co2       1 ACT      -0.6653
     20 CB        -13.7386   11.3430   -9.0340 C.3         1 ACT      -0.0184
     21 CG        -12.5368   12.2163   -9.3930 C.3         1 ACT      -0.0184
     22 CA        -12.3535   11.0139   -8.4411 C.3         1 ACT       0.1329
     23 C         -11.6315    9.9016   -9.0370 C.2         1 ACT       0.2267
     24 O         -10.4149    9.9972   -9.1320 O.2         1 ACT      -0.3419
     25 N         -12.1899   11.4337   -7.0744 N.am        1 ACT      -0.2738
     26 N         -12.2786    8.7932   -9.3752 N.am        1 ACT      -0.2608
     27 CA        -11.6963    7.6026   -9.9552 C.3         1 ACT       0.1474
     28 C         -12.7242    6.7906  -10.6138 C.2         1 ACT       0.2017
     29 O         -13.9164    7.0609  -10.5416 O.2         1 ACT      -0.3945
     30 CB        -10.8838    6.7594   -8.9104 C.3         1 ACT       0.0774
     31 CG        -10.3695    7.4794   -7.7574 C.2         1 ACT       0.1781
     32 OD1        -9.1688    7.6355   -7.5966 O.2         1 ACT      -0.3970
     33 ND2       -11.1850    7.9738   -6.8513 N.am        1 ACT      -0.3007
     34 N         -12.4170    5.7046  -11.2928 N.am        1 ACT      -0.2988
     35 H1         -8.9580    9.7662   -2.3970 H           1 ACT       0.0467
     36 H2        -10.3513    8.7910   -1.9097 H           1 ACT       0.0467
     37 H3         -9.9497   10.2728   -1.0200 H           1 ACT       0.0467
     38 H4         -9.4378   10.9951   -4.1685 H           1 ACT       0.1885
     39 H5        -12.1481   12.0197   -4.6201 H           1 ACT       0.0840
     40 H6        -10.6575   13.8015   -4.1255 H           1 ACT       0.0584
     41 H7        -11.1410   13.8927   -5.7957 H           1 ACT       0.0584
     42 H8         -8.4066   14.4323   -3.7752 H           1 ACT       0.0703
     43 H9         -9.3729   12.5592   -7.4368 H           1 ACT       0.0703
     44 H10        -6.1218   14.6452   -4.4972 H           1 ACT       0.0736
     45 H11        -7.0780   12.7490   -8.1293 H           1 ACT       0.0736
     46 H12       -14.1011   10.7182   -9.8535 H           1 ACT       0.0276
     47 H13       -14.4652   11.8192   -8.3741 H           1 ACT       0.0276
     48 H14       -12.5683   13.2150   -8.9536 H           1 ACT       0.0276
     49 H15       -12.2334   12.1155  -10.4381 H           1 ACT       0.0276
     50 H16       -12.8588   12.0587   -6.7467 H           1 ACT       0.1839
     51 H17       -13.2392    8.7883   -9.2367 H           1 ACT       0.1891
     52 H18       -11.0000    7.9036  -10.7482 H           1 ACT       0.0828
     53 H19       -10.0479    6.2905   -9.4373 H           1 ACT       0.0551
     54 H20       -11.4861    5.9403   -8.5208 H           1 ACT       0.0551
     55 H21       -10.8286    8.4301   -6.0722 H           1 ACT       0.1814
     56 H22       -12.1419    7.8414   -6.9332 H           1 ACT       0.1814
     57 H23       -13.1196    5.1724  -11.6991 H           1 ACT       0.1815
     58 H24       -11.4993    5.4039  -11.3695 H           1 ACT       0.1815
@<TRIPOS>BOND
     1     1     2   2
     2     1     3   1
     3     4     1  am
     4     5     4   1
     5     6     5   1
     6     5     8   1
     7     6     7   2
     8    25     6  am
     9     8     9   1
    10     9    10  ar
    11     9    11  ar
    12    10    12  ar
    13    11    13  ar
    14    12    14  ar
    15    13    14  ar
    16    14    15   1
    17    15    16   1
    18    16    17  ar
    19    16    18  ar
    20    16    19  ar
    21    21    20   1
    22    22    20   1
    23    22    21   1
    24    22    23   1
    25    22    25   1
    26    23    24   2
    27    23    26  am
    28    26    27   1
    29    27    28   1
    30    27    30   1
    31    28    29   2
    32    28    34  am
    33    30    31   1
    34    31    32   2
    35    31    33  am
    36     3    35   1
    37     3    36   1
    38     3    37   1
    39     4    38   1
    40     5    39   1
    41     8    40   1
    42     8    41   1
    43    10    42   1
    44    11    43   1
    45    12    44   1
    46    13    45   1
    47    20    46   1
    48    20    47   1
    49    21    48   1
    50    21    49   1
    51    25    50   1
    52    26    51   1
    53    27    52   1
    54    30    53   1
    55    30    54   1
    56    33    55   1
    57    33    56   1
    58    34    57   1
    59    34    58   1
@<TRIPOS>SUBSTRUCTURE
     1  ACT      1

