@<TRIPOS>MOLECULE
3ov1_ligand_026
    58    59
SMALL
GAST_HUCK
****
This file was generated by PARSER (from files_GN.cpp)

@<TRIPOS>ATOM
      1 C         -13.9493   12.7276   -0.5731 C.2         1 ACT       0.1753
      2 O         -14.0768   13.8609   -0.1228 O.2         1 ACT      -0.3972
      3 CH3       -15.0688   12.1355   -1.2639 C.3         1 ACT       0.0258
      4 N         -12.8346   12.0284   -0.4113 N.am        1 ACT      -0.2628
      5 CA        -11.6076   12.4202    0.2321 C.3         1 ACT       0.1465
      6 C         -11.7990   13.2504    1.4216 C.2         1 ACT       0.2045
      7 O         -11.2243   14.3304    1.5315 O.2         1 ACT      -0.3944
      8 CB        -10.6033   12.9793   -0.8280 C.3         1 ACT       0.0400
      9 CG        -10.2898   12.0918   -1.9961 C.ar        1 ACT      -0.0004
     10 CD1       -10.1785   12.6362   -3.3006 C.ar        1 ACT      -0.0239
     11 CD2        -9.9877   10.7198   -1.8165 C.ar        1 ACT      -0.0239
     12 CE1        -9.7894   11.8311   -4.3896 C.ar        1 ACT       0.0115
     13 CE2        -9.6277    9.9113   -2.9092 C.ar        1 ACT       0.0115
     14 CZ         -9.5415   10.4559   -4.2028 C.ar        1 ACT       0.1728
     15 OH         -9.0691    9.6680   -5.2143 O.3         1 ACT      -0.2040
     16 P         -10.1620    8.9517   -6.0588 P.3         1 ACT       0.1348
     17 O1P       -10.4250    9.6858   -7.2749 O.co2       1 ACT      -0.6653
     18 O2P        -9.5492    7.7103   -6.4462 O.co2       1 ACT      -0.6653
     19 O3P       -11.3957    8.6430   -5.3781 O.co2       1 ACT      -0.6653
     20 CB        -12.5657   12.8744    4.8060 C.3         1 ACT      -0.0184
     21 CG        -12.0270   14.2517    4.4327 C.3         1 ACT      -0.0184
     22 CA        -13.0617   13.5642    3.5091 C.3         1 ACT       0.1329
     23 C         -14.4463   13.9958    3.5600 C.2         1 ACT       0.2267
     24 O         -14.6854   15.1830    3.3857 O.2         1 ACT      -0.3419
     25 N         -12.6429   12.8322    2.3523 N.am        1 ACT      -0.2738
     26 N         -15.4153   13.1095    3.7770 N.am        1 ACT      -0.2608
     27 CA        -16.8132   13.3836    3.9866 C.3         1 ACT       0.1474
     28 C         -17.0348   13.4843    5.4258 C.2         1 ACT       0.2017
     29 O         -17.4409   12.5454    6.0980 O.2         1 ACT      -0.3945
     30 CB        -17.7058   12.2998    3.2991 C.3         1 ACT       0.0774
     31 CG        -17.7512   12.3636    1.8485 C.2         1 ACT       0.1781
     32 OD1       -17.3946   11.4108    1.1681 O.2         1 ACT      -0.3970
     33 ND2       -18.2669   13.3990    1.2229 N.am        1 ACT      -0.3007
     34 N         -16.7638   14.6041    6.0609 N.am        1 ACT      -0.2988
     35 H1        -14.8055   11.1689   -1.7068 H           1 ACT       0.0467
     36 H2        -15.4084   12.8054   -2.0567 H           1 ACT       0.0467
     37 H3        -15.8894   11.9818   -0.5625 H           1 ACT       0.0467
     38 H4        -12.8376   11.1304   -0.7929 H           1 ACT       0.1885
     39 H5        -11.1638   11.4931    0.6143 H           1 ACT       0.0840
     40 H6         -9.6497   13.1840   -0.3286 H           1 ACT       0.0584
     41 H7        -10.9947   13.9392   -1.1867 H           1 ACT       0.0584
     42 H8        -10.3435   13.6320   -3.4600 H           1 ACT       0.0703
     43 H9        -10.0076   10.2904   -0.8882 H           1 ACT       0.0703
     44 H10        -9.6735   12.2525   -5.3119 H           1 ACT       0.0736
     45 H11        -9.4054    8.9241   -2.7520 H           1 ACT       0.0736
     46 H12       -13.2129   12.8772    5.6842 H           1 ACT       0.0276
     47 H13       -11.8198   12.0815    4.7088 H           1 ACT       0.0276
     48 H14       -10.9831   14.2536    4.1054 H           1 ACT       0.0276
     49 H15       -12.3821   15.0764    5.0573 H           1 ACT       0.0276
     50 H16       -13.0756   11.9739    2.2046 H           1 ACT       0.1839
     51 H17       -15.1336   12.1875    3.9102 H           1 ACT       0.1891
     52 H18       -17.0848   14.3486    3.5431 H           1 ACT       0.0828
     53 H19       -18.7328   12.4097    3.6584 H           1 ACT       0.0551
     54 H20       -17.3577   11.3093    3.6075 H           1 ACT       0.0551
     55 H21       -18.3280   13.3978    0.2540 H           1 ACT       0.1814
     56 H22       -18.6048   14.1572    1.7252 H           1 ACT       0.1814
     57 H23       -16.9247   14.6831    7.0177 H           1 ACT       0.1815
     58 H24       -16.4201   15.3707    5.5669 H           1 ACT       0.1815
@<TRIPOS>BOND
     1     1     2   2
     2     1     3   1
     3     4     1  am
     4     5     4   1
     5     6     5   1
     6     5     8   1
     7     6     7   2
     8    25     6  am
     9     8     9   1
    10     9    10  ar
    11     9    11  ar
    12    10    12  ar
    13    11    13  ar
    14    12    14  ar
    15    13    14  ar
    16    14    15   1
    17    15    16   1
    18    16    17  ar
    19    16    18  ar
    20    16    19  ar
    21    21    20   1
    22    22    20   1
    23    22    21   1
    24    22    23   1
    25    22    25   1
    26    23    24   2
    27    23    26  am
    28    26    27   1
    29    27    28   1
    30    27    30   1
    31    28    29   2
    32    28    34  am
    33    30    31   1
    34    31    32   2
    35    31    33  am
    36     3    35   1
    37     3    36   1
    38     3    37   1
    39     4    38   1
    40     5    39   1
    41     8    40   1
    42     8    41   1
    43    10    42   1
    44    11    43   1
    45    12    44   1
    46    13    45   1
    47    20    46   1
    48    20    47   1
    49    21    48   1
    50    21    49   1
    51    25    50   1
    52    26    51   1
    53    27    52   1
    54    30    53   1
    55    30    54   1
    56    33    55   1
    57    33    56   1
    58    34    57   1
    59    34    58   1
@<TRIPOS>SUBSTRUCTURE
     1  ACT      1

