@<TRIPOS>MOLECULE
3ov1_ligand_069
    58    59
SMALL
GAST_HUCK
****
This file was generated by PARSER (from files_GN.cpp)

@<TRIPOS>ATOM
      1 C         -10.8504    8.3972   -7.2446 C.2         1 ACT       0.1753
      2 O         -11.3562    8.2128   -6.1433 O.2         1 ACT      -0.3972
      3 CH3       -10.4612    7.2353   -8.0129 C.3         1 ACT       0.0258
      4 N         -10.5644    9.6091   -7.7034 N.am        1 ACT      -0.2628
      5 CA        -10.7658   10.8776   -7.0549 C.3         1 ACT       0.1465
      6 C         -10.2153   10.8725   -5.6964 C.2         1 ACT       0.2045
      7 O         -10.9579   10.8736   -4.7212 O.2         1 ACT      -0.3944
      8 CB        -12.2451   11.3867   -7.2166 C.3         1 ACT       0.0400
      9 CG        -12.4765   12.2645   -8.4006 C.ar        1 ACT      -0.0004
     10 CD1       -13.3499   11.8968   -9.4525 C.ar        1 ACT      -0.0239
     11 CD2       -11.8530   13.5338   -8.4600 C.ar        1 ACT      -0.0239
     12 CE1       -13.5722   12.7671  -10.5418 C.ar        1 ACT       0.0115
     13 CE2       -12.0662   14.3966   -9.5492 C.ar        1 ACT       0.0115
     14 CZ        -12.9063   14.0099  -10.6127 C.ar        1 ACT       0.1728
     15 OH        -13.1526   14.8778  -11.6421 O.3         1 ACT      -0.2040
     16 P         -12.1813   14.7179  -12.8505 P.3         1 ACT       0.1348
     17 O1P       -12.3362   13.4412  -13.5049 O.co2       1 ACT      -0.6653
     18 O2P       -12.5167   15.7279  -13.8171 O.co2       1 ACT      -0.6653
     19 O3P       -10.7995   14.9187  -12.4925 O.co2       1 ACT      -0.6653
     20 CB         -7.7703    9.3769   -3.8134 C.3         1 ACT      -0.0184
     21 CG         -6.7320   10.3175   -4.4313 C.3         1 ACT      -0.0184
     22 CA         -8.1927   10.7831   -4.2955 C.3         1 ACT       0.1329
     23 C          -8.3814   11.8831   -3.3611 C.2         1 ACT       0.2267
     24 O          -8.7137   11.6444   -2.2046 O.2         1 ACT      -0.3419
     25 N          -8.8959   10.8133   -5.5376 N.am        1 ACT      -0.2738
     26 N          -8.3396   13.1216   -3.8417 N.am        1 ACT      -0.2608
     27 CA         -8.5730   14.3970   -3.2176 C.3         1 ACT       0.1474
     28 C          -7.2937   15.0859   -3.1639 C.2         1 ACT       0.2017
     29 O          -6.6700   15.2073   -2.1204 O.2         1 ACT      -0.3945
     30 CB         -9.3756   14.4755   -1.8729 C.3         1 ACT       0.0774
     31 CG        -10.7646   14.0558   -1.9743 C.2         1 ACT       0.1781
     32 OD1       -11.0466   12.9165   -2.3255 O.2         1 ACT      -0.3970
     33 ND2       -11.7500   14.8663   -1.6460 N.am        1 ACT      -0.3007
     34 N          -6.7370   15.5732   -4.2528 N.am        1 ACT      -0.2988
     35 H1        -10.1044    7.5111   -9.0094 H           1 ACT       0.0467
     36 H2        -11.3097    6.5570   -8.1278 H           1 ACT       0.0467
     37 H3         -9.6558    6.7092   -7.4959 H           1 ACT       0.0467
     38 H4        -10.1262    9.6411   -8.5699 H           1 ACT       0.1885
     39 H5        -10.1297   11.5789   -7.6064 H           1 ACT       0.0840
     40 H6        -12.5463   11.9689   -6.3429 H           1 ACT       0.0584
     41 H7        -12.9154   10.5272   -7.2509 H           1 ACT       0.0584
     42 H8        -13.8404   11.0013   -9.4331 H           1 ACT       0.0703
     43 H9        -11.2416   13.8443   -7.7011 H           1 ACT       0.0703
     44 H10       -14.2218   12.4954  -11.2848 H           1 ACT       0.0736
     45 H11       -11.6068   15.3113   -9.5687 H           1 ACT       0.0736
     46 H12        -7.6963    9.2213   -2.7333 H           1 ACT       0.0276
     47 H13        -8.0808    8.5427   -4.4506 H           1 ACT       0.0276
     48 H14        -6.3934   10.0022   -5.4187 H           1 ACT       0.0276
     49 H15        -5.9954   10.6878   -3.7142 H           1 ACT       0.0276
     50 H16        -8.3590   10.7776   -6.3405 H           1 ACT       0.1839
     51 H17        -8.0835   13.1823   -4.7771 H           1 ACT       0.1891
     52 H18        -9.1876   14.9472   -3.9391 H           1 ACT       0.0828
     53 H19        -9.3473   15.5106   -1.5113 H           1 ACT       0.0551
     54 H20        -8.8948   13.8785   -1.0963 H           1 ACT       0.0551
     55 H21       -12.6659   14.5524   -1.6988 H           1 ACT       0.1814
     56 H22       -11.5691   15.7613   -1.3235 H           1 ACT       0.1814
     57 H23        -5.8863   16.0386   -4.1991 H           1 ACT       0.1815
     58 H24        -7.1805   15.4854   -5.1107 H           1 ACT       0.1815
@<TRIPOS>BOND
     1     1     2   2
     2     1     3   1
     3     4     1  am
     4     5     4   1
     5     6     5   1
     6     5     8   1
     7     6     7   2
     8    25     6  am
     9     8     9   1
    10     9    10  ar
    11     9    11  ar
    12    10    12  ar
    13    11    13  ar
    14    12    14  ar
    15    13    14  ar
    16    14    15   1
    17    15    16   1
    18    16    17  ar
    19    16    18  ar
    20    16    19  ar
    21    21    20   1
    22    22    20   1
    23    22    21   1
    24    22    23   1
    25    22    25   1
    26    23    24   2
    27    23    26  am
    28    26    27   1
    29    27    28   1
    30    27    30   1
    31    28    29   2
    32    28    34  am
    33    30    31   1
    34    31    32   2
    35    31    33  am
    36     3    35   1
    37     3    36   1
    38     3    37   1
    39     4    38   1
    40     5    39   1
    41     8    40   1
    42     8    41   1
    43    10    42   1
    44    11    43   1
    45    12    44   1
    46    13    45   1
    47    20    46   1
    48    20    47   1
    49    21    48   1
    50    21    49   1
    51    25    50   1
    52    26    51   1
    53    27    52   1
    54    30    53   1
    55    30    54   1
    56    33    55   1
    57    33    56   1
    58    34    57   1
    59    34    58   1
@<TRIPOS>SUBSTRUCTURE
     1  ACT      1

