@<TRIPOS>MOLECULE
3ov1_ligand_060
    58    59
SMALL
GAST_HUCK
****
This file was generated by PARSER (from files_GN.cpp)

@<TRIPOS>ATOM
      1 C         -16.8199   12.4444    4.1202 C.2         1 ACT       0.1753
      2 O         -16.9311   11.3061    3.6758 O.2         1 ACT      -0.3972
      3 CH3       -17.3810   12.7220    5.4246 C.3         1 ACT       0.0258
      4 N         -16.2131   13.4001    3.4365 N.am        1 ACT      -0.2628
      5 CA        -15.6222   13.3012    2.1252 C.3         1 ACT       0.1465
      6 C         -14.2346   13.7452    2.2159 C.2         1 ACT       0.2045
      7 O         -13.9928   14.8949    2.5608 O.2         1 ACT      -0.3944
      8 CB        -16.4426   14.1363    1.0983 C.3         1 ACT       0.0400
      9 CG        -17.8933   13.7970    1.1166 C.ar        1 ACT      -0.0004
     10 CD1       -18.3164   12.4511    0.9854 C.ar        1 ACT      -0.0239
     11 CD2       -18.8740   14.8019    1.2492 C.ar        1 ACT      -0.0239
     12 CE1       -19.6845   12.1261    0.9912 C.ar        1 ACT       0.0115
     13 CE2       -20.2441   14.4754    1.2755 C.ar        1 ACT       0.0115
     14 CZ        -20.6579   13.1297    1.1666 C.ar        1 ACT       0.1728
     15 OH        -21.9911   12.8268    1.1097 O.3         1 ACT      -0.2040
     16 P         -22.6205   12.4670    2.4808 P.3         1 ACT       0.1348
     17 O1P       -21.8434   12.9030    3.6167 O.co2       1 ACT      -0.6653
     18 O2P       -23.8572   13.2007    2.5937 O.co2       1 ACT      -0.6653
     19 O3P       -22.9483   11.0629    2.6319 O.co2       1 ACT      -0.6653
     20 CB        -11.1628   12.8271    0.6893 C.3         1 ACT      -0.0184
     21 CG        -11.3453   14.2969    1.0802 C.3         1 ACT      -0.0184
     22 CA        -11.8477   13.1845    2.0310 C.3         1 ACT       0.1329
     23 C         -11.1015   12.7085    3.1923 C.2         1 ACT       0.2267
     24 O         -11.7655   12.2677    4.1312 O.2         1 ACT      -0.3419
     25 N         -13.2494   12.8945    1.9633 N.am        1 ACT      -0.2738
     26 N          -9.7739   12.7312    3.2335 N.am        1 ACT      -0.2608
     27 CA         -8.8569   12.0851    4.1389 C.3         1 ACT       0.1474
     28 C          -9.3960   11.3542    5.2845 C.2         1 ACT       0.2017
     29 O          -9.9546   11.9404    6.1998 O.2         1 ACT      -0.3945
     30 CB         -7.7276   13.0762    4.5608 C.3         1 ACT       0.0774
     31 CG         -8.1424   14.1710    5.4236 C.2         1 ACT       0.1781
     32 OD1        -8.4817   15.2559    4.9578 O.2         1 ACT      -0.3970
     33 ND2        -8.1304   14.0386    6.7358 N.am        1 ACT      -0.3007
     34 N          -9.3344   10.0438    5.3578 N.am        1 ACT      -0.2988
     35 H1        -17.2032   13.7613    5.7241 H           1 ACT       0.0467
     36 H2        -16.9233   12.0630    6.1697 H           1 ACT       0.0467
     37 H3        -18.4615   12.5464    5.4038 H           1 ACT       0.0467
     38 H4        -16.1818   14.2737    3.8524 H           1 ACT       0.1885
     39 H5        -15.6420   12.2649    1.7797 H           1 ACT       0.0840
     40 H6        -16.0568   13.9591    0.0911 H           1 ACT       0.0584
     41 H7        -16.2946   15.1984    1.3030 H           1 ACT       0.0584
     42 H8        -17.6362   11.6976    0.8454 H           1 ACT       0.0703
     43 H9        -18.5886   15.7787    1.3479 H           1 ACT       0.0703
     44 H10       -19.9814   11.1553    0.8736 H           1 ACT       0.0736
     45 H11       -20.9356   15.2279    1.3545 H           1 ACT       0.0736
     46 H12       -10.1180   12.5050    0.6928 H           1 ACT       0.0276
     47 H13       -11.7967   12.5118   -0.1430 H           1 ACT       0.0276
     48 H14       -12.1012   14.8351    0.5024 H           1 ACT       0.0276
     49 H15       -10.4277   14.8199    1.3489 H           1 ACT       0.0276
     50 H16       -13.4949   11.9841    1.7413 H           1 ACT       0.1839
     51 H17        -9.3404   13.1255    2.4562 H           1 ACT       0.1891
     52 H18        -8.3411   11.3589    3.5051 H           1 ACT       0.0828
     53 H19        -7.2615   13.5025    3.6681 H           1 ACT       0.0551
     54 H20        -6.9375   12.5061    5.0655 H           1 ACT       0.0551
     55 H21        -8.4067   14.7737    7.3132 H           1 ACT       0.1814
     56 H22        -7.9020   13.1756    7.1355 H           1 ACT       0.1814
     57 H23        -9.7335    9.5883    6.1082 H           1 ACT       0.1815
     58 H24        -8.9038    9.5362    4.6570 H           1 ACT       0.1815
@<TRIPOS>BOND
     1     1     2   2
     2     1     3   1
     3     4     1  am
     4     5     4   1
     5     6     5   1
     6     5     8   1
     7     6     7   2
     8    25     6  am
     9     8     9   1
    10     9    10  ar
    11     9    11  ar
    12    10    12  ar
    13    11    13  ar
    14    12    14  ar
    15    13    14  ar
    16    14    15   1
    17    15    16   1
    18    16    17  ar
    19    16    18  ar
    20    16    19  ar
    21    21    20   1
    22    22    20   1
    23    22    21   1
    24    22    23   1
    25    22    25   1
    26    23    24   2
    27    23    26  am
    28    26    27   1
    29    27    28   1
    30    27    30   1
    31    28    29   2
    32    28    34  am
    33    30    31   1
    34    31    32   2
    35    31    33  am
    36     3    35   1
    37     3    36   1
    38     3    37   1
    39     4    38   1
    40     5    39   1
    41     8    40   1
    42     8    41   1
    43    10    42   1
    44    11    43   1
    45    12    44   1
    46    13    45   1
    47    20    46   1
    48    20    47   1
    49    21    48   1
    50    21    49   1
    51    25    50   1
    52    26    51   1
    53    27    52   1
    54    30    53   1
    55    30    54   1
    56    33    55   1
    57    33    56   1
    58    34    57   1
    59    34    58   1
@<TRIPOS>SUBSTRUCTURE
     1  ACT      1

