@<TRIPOS>MOLECULE
3ov1_ligand_015
    58    59
SMALL
GAST_HUCK
****
This file was generated by PARSER (from files_GN.cpp)

@<TRIPOS>ATOM
      1 C         -13.1284   14.0679   -1.9516 C.2         1 ACT       0.1753
      2 O         -12.9330   15.2623   -2.1406 O.2         1 ACT      -0.3972
      3 CH3       -14.4987   13.6082   -1.8953 C.3         1 ACT       0.0258
      4 N         -12.1253   13.2146   -1.7748 N.am        1 ACT      -0.2628
      5 CA        -10.7112   13.4988   -1.8061 C.3         1 ACT       0.1465
      6 C         -10.2513   14.3685   -0.7148 C.2         1 ACT       0.2045
      7 O          -9.0667   14.6873   -0.6922 O.2         1 ACT      -0.3944
      8 CB        -10.2584   13.9809   -3.2298 C.3         1 ACT       0.0400
      9 CG        -10.3245   12.9156   -4.2727 C.ar        1 ACT      -0.0004
     10 CD1       -11.4937   12.7278   -5.0454 C.ar        1 ACT      -0.0239
     11 CD2        -9.1990   12.0999   -4.5456 C.ar        1 ACT      -0.0239
     12 CE1       -11.5405   11.7513   -6.0571 C.ar        1 ACT       0.0115
     13 CE2        -9.2400   11.1292   -5.5656 C.ar        1 ACT       0.0115
     14 CZ        -10.4202   10.9330   -6.3190 C.ar        1 ACT       0.1728
     15 OH        -10.4786   10.0513   -7.3709 O.3         1 ACT      -0.2040
     16 P         -10.7327    8.5701   -6.9732 P.3         1 ACT       0.1348
     17 O1P       -11.2221    7.8587   -8.1270 O.co2       1 ACT      -0.6653
     18 O2P        -9.5018    7.9256   -6.5837 O.co2       1 ACT      -0.6653
     19 O3P       -11.7008    8.4074   -5.9203 O.co2       1 ACT      -0.6653
     20 CB        -10.9811   17.0638    1.2414 C.3         1 ACT      -0.0184
     21 CG        -11.8767   16.1909    2.1245 C.3         1 ACT      -0.0184
     22 CA        -10.6594   15.5636    1.4043 C.3         1 ACT       0.1329
     23 C          -9.5678   15.1805    2.2836 C.2         1 ACT       0.2267
     24 O          -8.4521   15.6221    2.0476 O.2         1 ACT      -0.3419
     25 N         -11.0295   14.7104    0.3095 N.am        1 ACT      -0.2738
     26 N          -9.7924   14.3208    3.2680 N.am        1 ACT      -0.2608
     27 CA         -8.8345   13.7479    4.1828 C.3         1 ACT       0.1474
     28 C          -8.6491   12.3294    3.8770 C.2         1 ACT       0.2017
     29 O          -9.0388   11.8367    2.8275 O.2         1 ACT      -0.3945
     30 CB         -9.3087   14.0125    5.6600 C.3         1 ACT       0.0774
     31 CG         -8.3175   14.7077    6.4648 C.2         1 ACT       0.1781
     32 OD1        -8.0300   15.8684    6.2095 O.2         1 ACT      -0.3970
     33 ND2        -7.6944   14.1278    7.4673 N.am        1 ACT      -0.3007
     34 N          -7.9944   11.5198    4.6823 N.am        1 ACT      -0.2988
     35 H1        -14.5598   12.5400   -1.6716 H           1 ACT       0.0467
     36 H2        -14.9860   13.7875   -2.8561 H           1 ACT       0.0467
     37 H3        -15.0379   14.1541   -1.1176 H           1 ACT       0.0467
     38 H4        -12.3722   12.2912   -1.6097 H           1 ACT       0.1885
     39 H5        -10.2205   12.5383   -1.6273 H           1 ACT       0.0840
     40 H6         -9.2280   14.3457   -3.1862 H           1 ACT       0.0584
     41 H7        -10.8618   14.8358   -3.5472 H           1 ACT       0.0584
     42 H8        -12.3181   13.3132   -4.8859 H           1 ACT       0.0703
     43 H9         -8.3344   12.2141   -4.0134 H           1 ACT       0.0703
     44 H10       -12.3945   11.6370   -6.6097 H           1 ACT       0.0736
     45 H11        -8.4103   10.5634   -5.7545 H           1 ACT       0.0736
     46 H12       -10.3422   17.7688    1.7781 H           1 ACT       0.0276
     47 H13       -11.4155   17.3621    0.2851 H           1 ACT       0.0276
     48 H14       -12.8667   16.0003    1.7054 H           1 ACT       0.0276
     49 H15       -11.7932   16.4050    3.1926 H           1 ACT       0.0276
     50 H16       -11.9414   14.3819    0.3067 H           1 ACT       0.1839
     51 H17       -10.7072   14.0156    3.3644 H           1 ACT       0.1891
     52 H18        -7.8502   14.2025    4.0256 H           1 ACT       0.0828
     53 H19        -9.5865   13.0748    6.1547 H           1 ACT       0.0551
     54 H20       -10.2134   14.6247    5.6730 H           1 ACT       0.0551
     55 H21        -7.0407   14.6260    7.9855 H           1 ACT       0.1814
     56 H22        -7.8707   13.1986    7.6862 H           1 ACT       0.1814
     57 H23        -7.8578   10.5912    4.4228 H           1 ACT       0.1815
     58 H24        -7.7007   11.8153    5.5592 H           1 ACT       0.1815
@<TRIPOS>BOND
     1     1     2   2
     2     1     3   1
     3     4     1  am
     4     5     4   1
     5     6     5   1
     6     5     8   1
     7     6     7   2
     8    25     6  am
     9     8     9   1
    10     9    10  ar
    11     9    11  ar
    12    10    12  ar
    13    11    13  ar
    14    12    14  ar
    15    13    14  ar
    16    14    15   1
    17    15    16   1
    18    16    17  ar
    19    16    18  ar
    20    16    19  ar
    21    21    20   1
    22    22    20   1
    23    22    21   1
    24    22    23   1
    25    22    25   1
    26    23    24   2
    27    23    26  am
    28    26    27   1
    29    27    28   1
    30    27    30   1
    31    28    29   2
    32    28    34  am
    33    30    31   1
    34    31    32   2
    35    31    33  am
    36     3    35   1
    37     3    36   1
    38     3    37   1
    39     4    38   1
    40     5    39   1
    41     8    40   1
    42     8    41   1
    43    10    42   1
    44    11    43   1
    45    12    44   1
    46    13    45   1
    47    20    46   1
    48    20    47   1
    49    21    48   1
    50    21    49   1
    51    25    50   1
    52    26    51   1
    53    27    52   1
    54    30    53   1
    55    30    54   1
    56    33    55   1
    57    33    56   1
    58    34    57   1
    59    34    58   1
@<TRIPOS>SUBSTRUCTURE
     1  ACT      1

