@<TRIPOS>MOLECULE
3ov1_ligand_057
    58    59
SMALL
GAST_HUCK
****
This file was generated by PARSER (from files_GN.cpp)

@<TRIPOS>ATOM
      1 C         -13.0603   13.2502    1.6725 C.2         1 ACT       0.1753
      2 O         -12.9867   13.8568    2.7461 O.2         1 ACT      -0.3972
      3 CH3       -11.9642   12.3989    1.2948 C.3         1 ACT       0.0258
      4 N         -14.0893   13.4312    0.8571 N.am        1 ACT      -0.2628
      5 CA        -15.2382   14.2649    1.0950 C.3         1 ACT       0.1465
      6 C         -16.2119   14.0070    0.0349 C.2         1 ACT       0.2045
      7 O         -16.4094   14.8053   -0.8805 O.2         1 ACT      -0.3944
      8 CB        -14.8176   15.7739    1.2883 C.3         1 ACT       0.0400
      9 CG        -15.4535   16.4187    2.4717 C.ar        1 ACT      -0.0004
     10 CD1       -14.6821   17.1782    3.3882 C.ar        1 ACT      -0.0239
     11 CD2       -16.8394   16.2812    2.7076 C.ar        1 ACT      -0.0239
     12 CE1       -15.2795   17.7819    4.5072 C.ar        1 ACT       0.0115
     13 CE2       -17.4381   16.8688    3.8310 C.ar        1 ACT       0.0115
     14 CZ        -16.6691   17.6525    4.7259 C.ar        1 ACT       0.1728
     15 OH        -17.2534   18.2022    5.8282 O.3         1 ACT      -0.2040
     16 P         -17.5025   19.7362    5.6924 P.3         1 ACT       0.1348
     17 O1P       -16.2718   20.4779    5.5778 O.co2       1 ACT      -0.6653
     18 O2P       -18.3693   20.0561    4.5838 O.co2       1 ACT      -0.6653
     19 O3P       -18.1654   20.1788    6.8944 O.co2       1 ACT      -0.6653
     20 CB        -17.4607   12.6687   -2.4114 C.3         1 ACT      -0.0184
     21 CG        -17.3205   11.2614   -1.8325 C.3         1 ACT      -0.0184
     22 CA        -17.8211   12.4089   -0.9286 C.3         1 ACT       0.1329
     23 C         -19.2347   12.5002   -0.6210 C.2         1 ACT       0.2267
     24 O         -19.7034   13.6233   -0.4246 O.2         1 ACT      -0.3419
     25 N         -16.8905   12.8571    0.0594 N.am        1 ACT      -0.2738
     26 N         -19.9768   11.4014   -0.5183 N.am        1 ACT      -0.2608
     27 CA        -21.4040   11.2915   -0.3808 C.3         1 ACT       0.1474
     28 C         -22.0344   11.2775   -1.6992 C.2         1 ACT       0.2017
     29 O         -22.5933   10.2686   -2.1099 O.2         1 ACT      -0.3945
     30 CB        -22.0753   12.3126    0.5960 C.3         1 ACT       0.0774
     31 CG        -21.8219   12.0090    1.9961 C.2         1 ACT       0.1781
     32 OD1       -20.7425   12.2833    2.4976 O.2         1 ACT      -0.3970
     33 ND2       -22.7407   11.4439    2.7457 N.am        1 ACT      -0.3007
     34 N         -22.0296   12.3217   -2.4975 N.am        1 ACT      -0.2988
     35 H1        -12.1372   11.9164    0.3246 H           1 ACT       0.0467
     36 H2        -11.8242   11.6183    2.0489 H           1 ACT       0.0467
     37 H3        -11.0443   12.9862    1.2253 H           1 ACT       0.0467
     38 H4        -14.0777   12.9240    0.0210 H           1 ACT       0.1885
     39 H5        -15.7024   13.9057    2.0149 H           1 ACT       0.0840
     40 H6        -15.0588   16.3860    0.4144 H           1 ACT       0.0584
     41 H7        -13.7318   15.8397    1.3801 H           1 ACT       0.0584
     42 H8        -13.6752   17.2912    3.2520 H           1 ACT       0.0703
     43 H9        -17.4217   15.7359    2.0662 H           1 ACT       0.0703
     44 H10       -14.7081   18.3164    5.1606 H           1 ACT       0.0736
     45 H11       -18.4388   16.7556    3.9962 H           1 ACT       0.0736
     46 H12       -18.2723   12.7701   -3.1381 H           1 ACT       0.0276
     47 H13       -16.5155   13.1682   -2.6163 H           1 ACT       0.0276
     48 H14       -16.2824   10.9356   -1.7035 H           1 ACT       0.0276
     49 H15       -18.0590   10.5408   -2.1901 H           1 ACT       0.0276
     50 H16       -16.7356   12.2746    0.8244 H           1 ACT       0.1839
     51 H17       -19.5146   10.5535   -0.6656 H           1 ACT       0.1891
     52 H18       -21.5661   10.2996    0.0546 H           1 ACT       0.0828
     53 H19       -23.1565   12.3024    0.4200 H           1 ACT       0.0551
     54 H20       -21.7327   13.3341    0.3925 H           1 ACT       0.0551
     55 H21       -22.5373   11.2216    3.6713 H           1 ACT       0.1814
     56 H22       -23.6111   11.2051    2.3719 H           1 ACT       0.1814
     57 H23       -22.4486   12.2719   -3.3711 H           1 ACT       0.1815
     58 H24       -21.6142   13.1538   -2.2293 H           1 ACT       0.1815
@<TRIPOS>BOND
     1     1     2   2
     2     1     3   1
     3     4     1  am
     4     5     4   1
     5     6     5   1
     6     5     8   1
     7     6     7   2
     8    25     6  am
     9     8     9   1
    10     9    10  ar
    11     9    11  ar
    12    10    12  ar
    13    11    13  ar
    14    12    14  ar
    15    13    14  ar
    16    14    15   1
    17    15    16   1
    18    16    17  ar
    19    16    18  ar
    20    16    19  ar
    21    21    20   1
    22    22    20   1
    23    22    21   1
    24    22    23   1
    25    22    25   1
    26    23    24   2
    27    23    26  am
    28    26    27   1
    29    27    28   1
    30    27    30   1
    31    28    29   2
    32    28    34  am
    33    30    31   1
    34    31    32   2
    35    31    33  am
    36     3    35   1
    37     3    36   1
    38     3    37   1
    39     4    38   1
    40     5    39   1
    41     8    40   1
    42     8    41   1
    43    10    42   1
    44    11    43   1
    45    12    44   1
    46    13    45   1
    47    20    46   1
    48    20    47   1
    49    21    48   1
    50    21    49   1
    51    25    50   1
    52    26    51   1
    53    27    52   1
    54    30    53   1
    55    30    54   1
    56    33    55   1
    57    33    56   1
    58    34    57   1
    59    34    58   1
@<TRIPOS>SUBSTRUCTURE
     1  ACT      1

