@<TRIPOS>MOLECULE
3ov1_ligand_087
    58    59
SMALL
GAST_HUCK
****
This file was generated by PARSER (from files_GN.cpp)

@<TRIPOS>ATOM
      1 C         -10.4434    8.9514   -5.4909 C.2         1 ACT       0.1753
      2 O         -10.0679    8.0863   -4.7108 O.2         1 ACT      -0.3972
      3 CH3       -10.9900    8.5348   -6.7615 C.3         1 ACT       0.0258
      4 N         -10.3337   10.2436   -5.2101 N.am        1 ACT      -0.2628
      5 CA         -9.7797   10.8781   -4.0385 C.3         1 ACT       0.1465
      6 C          -8.3407   10.6096   -3.9363 C.2         1 ACT       0.2045
      7 O          -7.6382   10.9152   -4.8920 O.2         1 ACT      -0.3944
      8 CB        -10.6452   10.5868   -2.7662 C.3         1 ACT       0.0400
      9 CG        -10.5144   11.4656   -1.5587 C.ar        1 ACT      -0.0004
     10 CD1       -11.2840   11.1407   -0.4150 C.ar        1 ACT      -0.0239
     11 CD2        -9.7142   12.6371   -1.5036 C.ar        1 ACT      -0.0239
     12 CE1       -11.2951   11.9722    0.7180 C.ar        1 ACT       0.0115
     13 CE2        -9.7334   13.4762   -0.3714 C.ar        1 ACT       0.0115
     14 CZ        -10.5537   13.1705    0.7314 C.ar        1 ACT       0.1728
     15 OH        -10.5568   13.9858    1.8288 O.3         1 ACT      -0.2040
     16 P         -11.6569   15.0922    1.7869 P.3         1 ACT       0.1348
     17 O1P       -11.5183   15.9783    0.6583 O.co2       1 ACT      -0.6653
     18 O2P       -12.9905   14.5433    1.8124 O.co2       1 ACT      -0.6653
     19 O3P       -11.5117   15.8964    2.9731 O.co2       1 ACT      -0.6653
     20 CB         -6.2657    8.2827   -1.9434 C.3         1 ACT      -0.0184
     21 CG         -6.1830    8.2281   -3.4728 C.3         1 ACT      -0.0184
     22 CA         -6.4315    9.5848   -2.7729 C.3         1 ACT       0.1329
     23 C          -5.3321   10.5361   -2.7710 C.2         1 ACT       0.2267
     24 O          -4.9022   10.9118   -3.8509 O.2         1 ACT      -0.3419
     25 N          -7.7841   10.0592   -2.8626 N.am        1 ACT      -0.2738
     26 N          -4.8360   10.9323   -1.5939 N.am        1 ACT      -0.2608
     27 CA         -3.8303   11.9047   -1.2384 C.3         1 ACT       0.1474
     28 C          -3.2970   12.7220   -2.3342 C.2         1 ACT       0.2017
     29 O          -2.5263   12.2527   -3.1634 O.2         1 ACT      -0.3945
     30 CB         -2.6637   11.2758   -0.3998 C.3         1 ACT       0.0774
     31 CG         -2.9245   10.2291    0.5744 C.2         1 ACT       0.1781
     32 OD1        -3.9709    9.5637    0.5553 O.2         1 ACT      -0.3970
     33 ND2        -1.9367    9.7846    1.3138 N.am        1 ACT      -0.3007
     34 N          -3.6320   13.9855   -2.4992 N.am        1 ACT      -0.2988
     35 H1        -11.3027    9.3895   -7.3664 H           1 ACT       0.0467
     36 H2        -11.8570    7.8942   -6.5988 H           1 ACT       0.0467
     37 H3        -10.2357    7.9786   -7.3187 H           1 ACT       0.0467
     38 H4        -10.6619   10.8519   -5.8952 H           1 ACT       0.1885
     39 H5         -9.8875   11.9453   -4.2490 H           1 ACT       0.0840
     40 H6        -10.4687    9.5517   -2.4597 H           1 ACT       0.0584
     41 H7        -11.6955   10.6504   -3.0635 H           1 ACT       0.0584
     42 H8        -11.8625   10.2941   -0.4044 H           1 ACT       0.0703
     43 H9         -9.1164   12.9075   -2.2857 H           1 ACT       0.0703
     44 H10       -11.8605   11.7196    1.5290 H           1 ACT       0.0736
     45 H11        -9.1571   14.3218   -0.3681 H           1 ACT       0.0736
     46 H12        -5.3054    8.1178   -1.4342 H           1 ACT       0.0276
     47 H13        -7.1780    7.8431   -1.5149 H           1 ACT       0.0276
     48 H14        -7.0429    7.7427   -3.9424 H           1 ACT       0.0276
     49 H15        -5.1831    8.0220   -3.8574 H           1 ACT       0.0276
     50 H16        -8.3516    9.8872   -2.0960 H           1 ACT       0.1839
     51 H17        -5.3065   10.5637   -0.8341 H           1 ACT       0.1891
     52 H18        -4.3568   12.5900   -0.5599 H           1 ACT       0.0828
     53 H19        -2.1891   12.1028    0.1412 H           1 ACT       0.0551
     54 H20        -1.9049   10.8767   -1.0796 H           1 ACT       0.0551
     55 H21        -2.0726    8.9911    1.8514 H           1 ACT       0.1814
     56 H22        -1.0656   10.2324    1.2999 H           1 ACT       0.1814
     57 H23        -3.2684   14.4927   -3.2466 H           1 ACT       0.1815
     58 H24        -4.2478   14.4132   -1.8835 H           1 ACT       0.1815
@<TRIPOS>BOND
     1     1     2   2
     2     1     3   1
     3     4     1  am
     4     5     4   1
     5     6     5   1
     6     5     8   1
     7     6     7   2
     8    25     6  am
     9     8     9   1
    10     9    10  ar
    11     9    11  ar
    12    10    12  ar
    13    11    13  ar
    14    12    14  ar
    15    13    14  ar
    16    14    15   1
    17    15    16   1
    18    16    17  ar
    19    16    18  ar
    20    16    19  ar
    21    21    20   1
    22    22    20   1
    23    22    21   1
    24    22    23   1
    25    22    25   1
    26    23    24   2
    27    23    26  am
    28    26    27   1
    29    27    28   1
    30    27    30   1
    31    28    29   2
    32    28    34  am
    33    30    31   1
    34    31    32   2
    35    31    33  am
    36     3    35   1
    37     3    36   1
    38     3    37   1
    39     4    38   1
    40     5    39   1
    41     8    40   1
    42     8    41   1
    43    10    42   1
    44    11    43   1
    45    12    44   1
    46    13    45   1
    47    20    46   1
    48    20    47   1
    49    21    48   1
    50    21    49   1
    51    25    50   1
    52    26    51   1
    53    27    52   1
    54    30    53   1
    55    30    54   1
    56    33    55   1
    57    33    56   1
    58    34    57   1
    59    34    58   1
@<TRIPOS>SUBSTRUCTURE
     1  ACT      1

