@<TRIPOS>MOLECULE
3ov1_ligand_000
    58    59
SMALL
GAST_HUCK
****
This file was generated by PARSER (from files_GN.cpp)

@<TRIPOS>ATOM
      1 C         -10.4228    9.0858   -2.4415 C.2         1 ACT       0.1753
      2 O         -11.1879    9.5866   -3.2651 O.2         1 ACT      -0.3972
      3 CH3       -11.0061    8.4724   -1.2697 C.3         1 ACT       0.0258
      4 N          -9.1120    9.0393   -2.6344 N.am        1 ACT      -0.2628
      5 CA         -8.3920    9.5181   -3.7856 C.3         1 ACT       0.1465
      6 C          -9.1456    9.2511   -5.0167 C.2         1 ACT       0.2045
      7 O          -9.3620    8.0851   -5.3301 O.2         1 ACT      -0.3944
      8 CB         -6.9683    8.8832   -3.8306 C.3         1 ACT       0.0400
      9 CG         -6.0319    9.4475   -2.8168 C.ar        1 ACT      -0.0004
     10 CD1        -5.2219   10.5631   -3.1283 C.ar        1 ACT      -0.0239
     11 CD2        -5.9268    8.8756   -1.5287 C.ar        1 ACT      -0.0239
     12 CE1        -4.3067   11.0771   -2.1794 C.ar        1 ACT       0.0115
     13 CE2        -5.0266    9.4026   -0.5872 C.ar        1 ACT       0.0115
     14 CZ         -4.2052   10.5031   -0.8928 C.ar        1 ACT       0.1728
     15 OH         -3.2917   10.8453    0.0829 O.3         1 ACT      -0.2040
     16 P          -2.6223   12.2514    0.0906 P.3         1 ACT       0.1348
     17 O1P        -1.6573   12.3033    1.1683 O.co2       1 ACT      -0.6653
     18 O2P        -1.8907   12.4554   -1.1379 O.co2       1 ACT      -0.6653
     19 O3P        -3.5821   13.3166    0.2784 O.co2       1 ACT      -0.6653
     20 CB        -11.6454   11.4521   -6.5506 C.3         1 ACT      -0.0184
     21 CG        -10.5719   11.5817   -7.6250 C.3         1 ACT      -0.0184
     22 CA        -10.6222   10.3085   -6.7542 C.3         1 ACT       0.1329
     23 C         -11.2311    9.1096   -7.3020 C.2         1 ACT       0.2267
     24 O         -11.8601    8.3860   -6.5278 O.2         1 ACT      -0.3419
     25 N          -9.6650   10.2778   -5.6810 N.am        1 ACT      -0.2738
     26 N         -11.0388    8.7891   -8.5667 N.am        1 ACT      -0.2608
     27 CA        -11.4627    7.5958   -9.2462 C.3         1 ACT       0.1474
     28 C         -10.2582    7.0219   -9.8278 C.2         1 ACT       0.2017
     29 O          -9.6619    6.1295   -9.2405 O.2         1 ACT      -0.3945
     30 CB        -12.5972    7.9278  -10.2639 C.3         1 ACT       0.0774
     31 CG        -13.0494    6.7885  -11.0515 C.2         1 ACT       0.1781
     32 OD1       -14.0062    6.1174  -10.7026 O.2         1 ACT      -0.3970
     33 ND2       -12.4551    6.4602  -12.1825 N.am        1 ACT      -0.3007
     34 N          -9.7139    7.5128  -10.9220 N.am        1 ACT      -0.2988
     35 H1        -10.2277    8.0641   -0.6165 H           1 ACT       0.0467
     36 H2        -11.6681    7.6525   -1.5686 H           1 ACT       0.0467
     37 H3        -11.5874    9.2118   -0.7081 H           1 ACT       0.0467
     38 H4         -8.5863    8.6266   -1.9230 H           1 ACT       0.1885
     39 H5         -8.2601   10.5954   -3.6575 H           1 ACT       0.0840
     40 H6         -6.5309    9.0252   -4.8246 H           1 ACT       0.0584
     41 H7         -7.0376    7.7975   -3.6950 H           1 ACT       0.0584
     42 H8         -5.2818   10.9935   -4.0554 H           1 ACT       0.0703
     43 H9         -6.4967    8.0692   -1.2700 H           1 ACT       0.0703
     44 H10        -3.7075   11.8693   -2.4436 H           1 ACT       0.0736
     45 H11        -4.9599    8.9651    0.3314 H           1 ACT       0.0736
     46 H12       -12.6570   11.3379   -6.9556 H           1 ACT       0.0276
     47 H13       -11.5095   12.1168   -5.6937 H           1 ACT       0.0276
     48 H14        -9.7758   12.2982   -7.4048 H           1 ACT       0.0276
     49 H15       -10.9362   11.5155   -8.6527 H           1 ACT       0.0276
     50 H16        -9.4066   11.1514   -5.3503 H           1 ACT       0.1839
     51 H17       -10.5415    9.4290   -9.1062 H           1 ACT       0.1891
     52 H18       -11.8765    6.8740   -8.5291 H           1 ACT       0.0828
     53 H19       -12.2783    8.7230  -10.9436 H           1 ACT       0.0551
     54 H20       -13.4489    8.3223   -9.7018 H           1 ACT       0.0551
     55 H21       -12.7746    5.6952  -12.6945 H           1 ACT       0.1814
     56 H22       -11.7093    6.9873  -12.5152 H           1 ACT       0.1814
     57 H23        -8.8808    7.1446  -11.2599 H           1 ACT       0.1815
     58 H24       -10.1484    8.2381  -11.4030 H           1 ACT       0.1815
@<TRIPOS>BOND
     1     1     2   2
     2     1     3   1
     3     4     1  am
     4     5     4   1
     5     6     5   1
     6     5     8   1
     7     6     7   2
     8    25     6  am
     9     8     9   1
    10     9    10  ar
    11     9    11  ar
    12    10    12  ar
    13    11    13  ar
    14    12    14  ar
    15    13    14  ar
    16    14    15   1
    17    15    16   1
    18    16    17  ar
    19    16    18  ar
    20    16    19  ar
    21    21    20   1
    22    22    20   1
    23    22    21   1
    24    22    23   1
    25    22    25   1
    26    23    24   2
    27    23    26  am
    28    26    27   1
    29    27    28   1
    30    27    30   1
    31    28    29   2
    32    28    34  am
    33    30    31   1
    34    31    32   2
    35    31    33  am
    36     3    35   1
    37     3    36   1
    38     3    37   1
    39     4    38   1
    40     5    39   1
    41     8    40   1
    42     8    41   1
    43    10    42   1
    44    11    43   1
    45    12    44   1
    46    13    45   1
    47    20    46   1
    48    20    47   1
    49    21    48   1
    50    21    49   1
    51    25    50   1
    52    26    51   1
    53    27    52   1
    54    30    53   1
    55    30    54   1
    56    33    55   1
    57    33    56   1
    58    34    57   1
    59    34    58   1
@<TRIPOS>SUBSTRUCTURE
     1  ACT      1

