@<TRIPOS>MOLECULE
3ov1_ligand_068
    58    59
SMALL
GAST_HUCK
****
This file was generated by PARSER (from files_GN.cpp)

@<TRIPOS>ATOM
      1 C         -11.3659   11.8287   -1.7622 C.2         1 ACT       0.1753
      2 O         -12.3280   11.2910   -2.2963 O.2         1 ACT      -0.3972
      3 CH3       -11.5931   12.5329   -0.5250 C.3         1 ACT       0.0258
      4 N         -10.1449   11.7587   -2.2884 N.am        1 ACT      -0.2628
      5 CA         -9.7603   10.9986   -3.4507 C.3         1 ACT       0.1465
      6 C          -8.2894   10.9104   -3.5271 C.2         1 ACT       0.2045
      7 O          -7.6739   11.5345   -4.3852 O.2         1 ACT      -0.3944
      8 CB        -10.4530   11.5464   -4.7501 C.3         1 ACT       0.0400
      9 CG        -10.6918   10.6114   -5.8945 C.ar        1 ACT      -0.0004
     10 CD1       -10.1784    9.2944   -5.9687 C.ar        1 ACT      -0.0239
     11 CD2       -11.5279   11.0542   -6.9466 C.ar        1 ACT      -0.0239
     12 CE1       -10.5206    8.4444   -7.0370 C.ar        1 ACT       0.0115
     13 CE2       -11.8472   10.2164   -8.0287 C.ar        1 ACT       0.0115
     14 CZ        -11.3319    8.9086   -8.0924 C.ar        1 ACT       0.1728
     15 OH        -11.7026    8.0875   -9.1266 O.3         1 ACT      -0.2040
     16 P         -10.5177    7.5237   -9.9702 P.3         1 ACT       0.1348
     17 O1P        -9.8740    6.4135   -9.3130 O.co2       1 ACT      -0.6653
     18 O2P       -11.0568    7.0121  -11.2040 O.co2       1 ACT      -0.6653
     19 O3P        -9.5345    8.5188  -10.3146 O.co2       1 ACT      -0.6653
     20 CB         -5.7321    8.9123   -1.5641 C.3         1 ACT      -0.0184
     21 CG         -5.8325    8.4148   -3.0041 C.3         1 ACT      -0.0184
     22 CA         -6.1972    9.8805   -2.6744 C.3         1 ACT       0.1329
     23 C          -5.2201   10.8704   -3.1101 C.2         1 ACT       0.2267
     24 O          -5.1699   11.1137   -4.3084 O.2         1 ACT      -0.3419
     25 N          -7.6165   10.1412   -2.6752 N.am        1 ACT      -0.2738
     26 N          -4.3800   11.4423   -2.2537 N.am        1 ACT      -0.2608
     27 CA         -3.3860   12.4516   -2.5278 C.3         1 ACT       0.1474
     28 C          -2.0722   11.8434   -2.3399 C.2         1 ACT       0.2017
     29 O          -1.6402   11.6189   -1.2177 O.2         1 ACT      -0.3945
     30 CB         -3.7063   13.7477   -1.6913 C.3         1 ACT       0.0774
     31 CG         -2.8076   14.0899   -0.6013 C.2         1 ACT       0.1781
     32 OD1        -3.1924   14.0625    0.5609 O.2         1 ACT      -0.3970
     33 ND2        -1.5611   14.4356   -0.8260 N.am        1 ACT      -0.3007
     34 N          -1.3043   11.5247   -3.3601 N.am        1 ACT      -0.2988
     35 H1        -10.6651   12.9035   -0.0895 H           1 ACT       0.0467
     36 H2        -12.0656   11.8679    0.1997 H           1 ACT       0.0467
     37 H3        -12.2538   13.3812   -0.7041 H           1 ACT       0.0467
     38 H4         -9.4349   12.1995   -1.7991 H           1 ACT       0.1885
     39 H5        -10.1280    9.9859   -3.2731 H           1 ACT       0.0840
     40 H6         -9.8676   12.3953   -5.1139 H           1 ACT       0.0584
     41 H7        -11.4295   11.9534   -4.4856 H           1 ACT       0.0584
     42 H8         -9.5612    8.9317   -5.2435 H           1 ACT       0.0703
     43 H9        -11.9296   11.9948   -6.9271 H           1 ACT       0.0703
     44 H10       -10.1683    7.4839   -7.0495 H           1 ACT       0.0736
     45 H11       -12.4678   10.5550   -8.7663 H           1 ACT       0.0736
     46 H12        -4.7034    8.9933   -1.2008 H           1 ACT       0.0276
     47 H13        -6.5066    8.5170   -0.8996 H           1 ACT       0.0276
     48 H14        -6.6540    7.7169   -3.1807 H           1 ACT       0.0276
     49 H15        -4.8727    8.2317   -3.4932 H           1 ACT       0.0276
     50 H16        -8.1460    9.6378   -2.0326 H           1 ACT       0.1839
     51 H17        -4.4390   11.1447   -1.3328 H           1 ACT       0.1891
     52 H18        -3.4552   12.7500   -3.5830 H           1 ACT       0.0828
     53 H19        -4.7240   13.6833   -1.2941 H           1 ACT       0.0551
     54 H20        -3.7184   14.6062   -2.3696 H           1 ACT       0.0551
     55 H21        -0.9782   14.6581   -0.0843 H           1 ACT       0.1814
     56 H22        -1.2151   14.4535   -1.7320 H           1 ACT       0.1814
     57 H23        -0.4230   11.1452   -3.2114 H           1 ACT       0.1815
     58 H24        -1.6088   11.6773   -4.2697 H           1 ACT       0.1815
@<TRIPOS>BOND
     1     1     2   2
     2     1     3   1
     3     4     1  am
     4     5     4   1
     5     6     5   1
     6     5     8   1
     7     6     7   2
     8    25     6  am
     9     8     9   1
    10     9    10  ar
    11     9    11  ar
    12    10    12  ar
    13    11    13  ar
    14    12    14  ar
    15    13    14  ar
    16    14    15   1
    17    15    16   1
    18    16    17  ar
    19    16    18  ar
    20    16    19  ar
    21    21    20   1
    22    22    20   1
    23    22    21   1
    24    22    23   1
    25    22    25   1
    26    23    24   2
    27    23    26  am
    28    26    27   1
    29    27    28   1
    30    27    30   1
    31    28    29   2
    32    28    34  am
    33    30    31   1
    34    31    32   2
    35    31    33  am
    36     3    35   1
    37     3    36   1
    38     3    37   1
    39     4    38   1
    40     5    39   1
    41     8    40   1
    42     8    41   1
    43    10    42   1
    44    11    43   1
    45    12    44   1
    46    13    45   1
    47    20    46   1
    48    20    47   1
    49    21    48   1
    50    21    49   1
    51    25    50   1
    52    26    51   1
    53    27    52   1
    54    30    53   1
    55    30    54   1
    56    33    55   1
    57    33    56   1
    58    34    57   1
    59    34    58   1
@<TRIPOS>SUBSTRUCTURE
     1  ACT      1

