@<TRIPOS>MOLECULE
3ov1_ligand_092
    58    59
SMALL
GAST_HUCK
****
This file was generated by PARSER (from files_GN.cpp)

@<TRIPOS>ATOM
      1 C          -7.5464   10.9025   -5.2231 C.2         1 ACT       0.1753
      2 O          -7.1344    9.9304   -4.5973 O.2         1 ACT      -0.3972
      3 CH3        -6.6348   12.0051   -5.4357 C.3         1 ACT       0.0258
      4 N          -8.7719   10.9380   -5.7339 N.am        1 ACT      -0.2628
      5 CA         -9.7634    9.8969   -5.6729 C.3         1 ACT       0.1465
      6 C         -10.8240   10.1497   -6.6551 C.2         1 ACT       0.2045
      7 O         -11.7647   10.8979   -6.3945 O.2         1 ACT      -0.3944
      8 CB        -10.2645    9.6082   -4.2189 C.3         1 ACT       0.0400
      9 CG        -10.8839   10.6744   -3.3699 C.ar        1 ACT      -0.0004
     10 CD1       -11.3505   10.3122   -2.0849 C.ar        1 ACT      -0.0239
     11 CD2       -11.0565   12.0202   -3.7841 C.ar        1 ACT      -0.0239
     12 CE1       -12.0273   11.2350   -1.2665 C.ar        1 ACT       0.0115
     13 CE2       -11.7237   12.9466   -2.9564 C.ar        1 ACT       0.0115
     14 CZ        -12.2583   12.5471   -1.7176 C.ar        1 ACT       0.1728
     15 OH        -12.9232   13.4165   -0.8952 O.3         1 ACT      -0.2040
     16 P         -14.4428   13.5721   -1.2021 P.3         1 ACT       0.1348
     17 O1P       -14.9877   12.7617   -2.2640 O.co2       1 ACT      -0.6653
     18 O2P       -15.1735   13.2387   -0.0026 O.co2       1 ACT      -0.6653
     19 O3P       -14.7381   14.9572   -1.4717 O.co2       1 ACT      -0.6653
     20 CB        -12.1980   11.1647   -9.2747 C.3         1 ACT      -0.0184
     21 CG        -11.0088   10.5993  -10.0615 C.3         1 ACT      -0.0184
     22 CA        -11.6716    9.7395   -8.9483 C.3         1 ACT       0.1329
     23 C         -12.3553    8.5409   -9.4356 C.2         1 ACT       0.2267
     24 O         -11.8861    7.4438   -9.1345 O.2         1 ACT      -0.3419
     25 N         -10.7359    9.6113   -7.8669 N.am        1 ACT      -0.2738
     26 N         -13.3764    8.6030  -10.2818 N.am        1 ACT      -0.2608
     27 CA        -14.1581    7.5380  -10.8476 C.3         1 ACT       0.1474
     28 C         -13.3913    6.3411  -11.1916 C.2         1 ACT       0.2017
     29 O         -13.9171    5.2377  -11.1112 O.2         1 ACT      -0.3945
     30 CB        -14.9057    8.1111  -12.0951 C.3         1 ACT       0.0774
     31 CG        -15.9343    7.2431  -12.6318 C.2         1 ACT       0.1781
     32 OD1       -15.6601    6.1217  -13.0364 O.2         1 ACT      -0.3970
     33 ND2       -17.1912    7.6292  -12.6837 N.am        1 ACT      -0.3007
     34 N         -12.1569    6.3839  -11.6313 N.am        1 ACT      -0.2988
     35 H1         -7.1054   12.8239   -5.9832 H           1 ACT       0.0467
     36 H2         -5.7681   11.6610   -6.0092 H           1 ACT       0.0467
     37 H3         -6.2870   12.3907   -4.4716 H           1 ACT       0.0467
     38 H4         -9.0071   11.7327   -6.2398 H           1 ACT       0.1885
     39 H5         -9.2780    8.9688   -5.9910 H           1 ACT       0.0840
     40 H6         -9.4332    9.1939   -3.6458 H           1 ACT       0.0584
     41 H7        -11.0025    8.8034   -4.3167 H           1 ACT       0.0584
     42 H8        -11.2151    9.3573   -1.7417 H           1 ACT       0.0703
     43 H9        -10.7086   12.3451   -4.6865 H           1 ACT       0.0703
     44 H10       -12.3757   10.9272   -0.3563 H           1 ACT       0.0736
     45 H11       -11.8577   13.9114   -3.2710 H           1 ACT       0.0736
     46 H12       -13.1018   11.2684   -9.8783 H           1 ACT       0.0276
     47 H13       -11.9470   11.9501   -8.5670 H           1 ACT       0.0276
     48 H14       -10.0695   11.1083   -9.8451 H           1 ACT       0.0276
     49 H15       -11.2378   10.3542  -11.0996 H           1 ACT       0.0276
     50 H16        -9.9568    9.0588   -8.0401 H           1 ACT       0.1839
     51 H17       -13.6493    9.4984  -10.5355 H           1 ACT       0.1891
     52 H18       -14.9129    7.2700  -10.1030 H           1 ACT       0.0828
     53 H19       -14.1783    8.3361  -12.8817 H           1 ACT       0.0551
     54 H20       -15.3732    9.0661  -11.8263 H           1 ACT       0.0551
     55 H21       -17.8709    7.0392  -13.0506 H           1 ACT       0.1814
     56 H22       -17.4429    8.5108  -12.3659 H           1 ACT       0.1814
     57 H23       -11.6968    5.5554  -11.8485 H           1 ACT       0.1815
     58 H24       -11.6839    7.2226  -11.7165 H           1 ACT       0.1815
@<TRIPOS>BOND
     1     1     2   2
     2     1     3   1
     3     4     1  am
     4     5     4   1
     5     6     5   1
     6     5     8   1
     7     6     7   2
     8    25     6  am
     9     8     9   1
    10     9    10  ar
    11     9    11  ar
    12    10    12  ar
    13    11    13  ar
    14    12    14  ar
    15    13    14  ar
    16    14    15   1
    17    15    16   1
    18    16    17  ar
    19    16    18  ar
    20    16    19  ar
    21    21    20   1
    22    22    20   1
    23    22    21   1
    24    22    23   1
    25    22    25   1
    26    23    24   2
    27    23    26  am
    28    26    27   1
    29    27    28   1
    30    27    30   1
    31    28    29   2
    32    28    34  am
    33    30    31   1
    34    31    32   2
    35    31    33  am
    36     3    35   1
    37     3    36   1
    38     3    37   1
    39     4    38   1
    40     5    39   1
    41     8    40   1
    42     8    41   1
    43    10    42   1
    44    11    43   1
    45    12    44   1
    46    13    45   1
    47    20    46   1
    48    20    47   1
    49    21    48   1
    50    21    49   1
    51    25    50   1
    52    26    51   1
    53    27    52   1
    54    30    53   1
    55    30    54   1
    56    33    55   1
    57    33    56   1
    58    34    57   1
    59    34    58   1
@<TRIPOS>SUBSTRUCTURE
     1  ACT      1

