@<TRIPOS>MOLECULE
3ov1_ligand_085
    58    59
SMALL
GAST_HUCK
****
This file was generated by PARSER (from files_GN.cpp)

@<TRIPOS>ATOM
      1 C         -14.8244   14.6266    0.5731 C.2         1 ACT       0.1753
      2 O         -13.9004   14.0346    0.0291 O.2         1 ACT      -0.3972
      3 CH3       -14.5632   15.9529    1.0919 C.3         1 ACT       0.0258
      4 N         -16.0255   14.0792    0.7042 N.am        1 ACT      -0.2628
      5 CA        -16.4153   12.7619    0.2613 C.3         1 ACT       0.1465
      6 C         -16.5675   12.7296   -1.1901 C.2         1 ACT       0.2045
      7 O         -15.8448   11.9931   -1.8553 O.2         1 ACT      -0.3944
      8 CB        -17.7213   12.2873    0.9798 C.3         1 ACT       0.0400
      9 CG        -17.6798   12.4438    2.4620 C.ar        1 ACT      -0.0004
     10 CD1       -18.8068   12.9150    3.1803 C.ar        1 ACT      -0.0239
     11 CD2       -16.4900   12.1711    3.1796 C.ar        1 ACT      -0.0239
     12 CE1       -18.7264   13.1584    4.5638 C.ar        1 ACT       0.0115
     13 CE2       -16.4056   12.4446    4.5544 C.ar        1 ACT       0.0115
     14 CZ        -17.5088   12.9794    5.2520 C.ar        1 ACT       0.1728
     15 OH        -17.4434   13.2521    6.5926 O.3         1 ACT      -0.2040
     16 P         -16.4086   14.3607    6.9601 P.3         1 ACT       0.1348
     17 O1P       -16.4664   15.5175    6.1027 O.co2       1 ACT      -0.6653
     18 O2P       -16.7188   14.8118    8.2938 O.co2       1 ACT      -0.6653
     19 O3P       -15.0598   13.8531    6.9974 O.co2       1 ACT      -0.6653
     20 CB        -17.7346   15.0598   -3.7574 C.3         1 ACT      -0.0184
     21 CG        -16.5174   14.1734   -4.0193 C.3         1 ACT      -0.0184
     22 CA        -17.6937   13.6317   -3.1727 C.3         1 ACT       0.1329
     23 C         -18.4663   12.5763   -3.7880 C.2         1 ACT       0.2267
     24 O         -17.9567   11.4648   -3.8296 O.2         1 ACT      -0.3419
     25 N         -17.4482   13.5368   -1.7697 N.am        1 ACT      -0.2738
     26 N         -19.6708   12.8265   -4.2888 N.am        1 ACT      -0.2608
     27 CA        -20.5301   11.9274   -5.0162 C.3         1 ACT       0.1474
     28 C         -20.9226   10.7896   -4.1889 C.2         1 ACT       0.2017
     29 O         -22.0906   10.6178   -3.8730 O.2         1 ACT      -0.3945
     30 CB        -19.9691   11.4957   -6.4098 C.3         1 ACT       0.0774
     31 CG        -19.0104   12.4317   -6.9688 C.2         1 ACT       0.1781
     32 OD1       -17.8330   12.3846   -6.6314 O.2         1 ACT      -0.3970
     33 ND2       -19.3782   13.3750   -7.8058 N.am        1 ACT      -0.3007
     34 N         -20.0465    9.9223   -3.7273 N.am        1 ACT      -0.2988
     35 H1        -15.4562   16.3898    1.5463 H           1 ACT       0.0467
     36 H2        -14.2356   16.6060    0.2801 H           1 ACT       0.0467
     37 H3        -13.7768   15.9066    1.8478 H           1 ACT       0.0467
     38 H4        -16.6965   14.6092    1.1649 H           1 ACT       0.1885
     39 H5        -15.6177   12.0672    0.5518 H           1 ACT       0.0840
     40 H6        -17.8886   11.2321    0.7560 H           1 ACT       0.0584
     41 H7        -18.5739   12.8338    0.5704 H           1 ACT       0.0584
     42 H8        -19.6901   13.0980    2.6945 H           1 ACT       0.0703
     43 H9        -15.6626   11.8008    2.7039 H           1 ACT       0.0703
     44 H10       -19.5514   13.5061    5.0582 H           1 ACT       0.0736
     45 H11       -15.5273   12.2895    5.0494 H           1 ACT       0.0736
     46 H12       -18.3734   15.2301   -4.6274 H           1 ACT       0.0276
     47 H13       -17.5609   15.8809   -3.0583 H           1 ACT       0.0276
     48 H14       -15.6149   14.4793   -3.4851 H           1 ACT       0.0276
     49 H15       -16.4276   13.8239   -5.0511 H           1 ACT       0.0276
     50 H16       -17.9767   14.1104   -1.1921 H           1 ACT       0.1839
     51 H17       -19.9844   13.7468   -4.2105 H           1 ACT       0.1891
     52 H18       -21.4313   12.5141   -5.2176 H           1 ACT       0.0828
     53 H19       -20.7961   11.3808   -7.1139 H           1 ACT       0.0551
     54 H20       -19.4945   10.5132   -6.3267 H           1 ACT       0.0551
     55 H21       -18.7242   14.0025   -8.1528 H           1 ACT       0.1814
     56 H22       -20.3094   13.4521   -8.0759 H           1 ACT       0.1814
     57 H23       -20.3153    9.2098   -3.1351 H           1 ACT       0.1815
     58 H24       -19.1112    9.9989   -3.9638 H           1 ACT       0.1815
@<TRIPOS>BOND
     1     1     2   2
     2     1     3   1
     3     4     1  am
     4     5     4   1
     5     6     5   1
     6     5     8   1
     7     6     7   2
     8    25     6  am
     9     8     9   1
    10     9    10  ar
    11     9    11  ar
    12    10    12  ar
    13    11    13  ar
    14    12    14  ar
    15    13    14  ar
    16    14    15   1
    17    15    16   1
    18    16    17  ar
    19    16    18  ar
    20    16    19  ar
    21    21    20   1
    22    22    20   1
    23    22    21   1
    24    22    23   1
    25    22    25   1
    26    23    24   2
    27    23    26  am
    28    26    27   1
    29    27    28   1
    30    27    30   1
    31    28    29   2
    32    28    34  am
    33    30    31   1
    34    31    32   2
    35    31    33  am
    36     3    35   1
    37     3    36   1
    38     3    37   1
    39     4    38   1
    40     5    39   1
    41     8    40   1
    42     8    41   1
    43    10    42   1
    44    11    43   1
    45    12    44   1
    46    13    45   1
    47    20    46   1
    48    20    47   1
    49    21    48   1
    50    21    49   1
    51    25    50   1
    52    26    51   1
    53    27    52   1
    54    30    53   1
    55    30    54   1
    56    33    55   1
    57    33    56   1
    58    34    57   1
    59    34    58   1
@<TRIPOS>SUBSTRUCTURE
     1  ACT      1

