@<TRIPOS>MOLECULE
3ov1_ligand_051
    58    59
SMALL
GAST_HUCK
****
This file was generated by PARSER (from files_GN.cpp)

@<TRIPOS>ATOM
      1 C         -17.1738   16.2664   -0.1777 C.2         1 ACT       0.1753
      2 O         -15.9569   16.3762   -0.0990 O.2         1 ACT      -0.3972
      3 CH3       -17.9779   17.4494    0.0195 C.3         1 ACT       0.0258
      4 N         -17.7526   15.1060   -0.4711 N.am        1 ACT      -0.2628
      5 CA        -17.0900   13.8528   -0.7296 C.3         1 ACT       0.1465
      6 C         -16.8424   13.6286   -2.1530 C.2         1 ACT       0.2045
      7 O         -15.8626   12.9631   -2.4697 O.2         1 ACT      -0.3944
      8 CB        -17.9235   12.6933   -0.0955 C.3         1 ACT       0.0400
      9 CG        -17.6243   12.5083    1.3582 C.ar        1 ACT      -0.0004
     10 CD1       -18.5774   12.8214    2.3573 C.ar        1 ACT      -0.0239
     11 CD2       -16.3538   12.0397    1.7661 C.ar        1 ACT      -0.0239
     12 CE1       -18.2581   12.6873    3.7229 C.ar        1 ACT       0.0115
     13 CE2       -16.0359   11.8979    3.1287 C.ar        1 ACT       0.0115
     14 CZ        -16.9798   12.2493    4.1222 C.ar        1 ACT       0.1728
     15 OH        -16.7072   12.1008    5.4567 O.3         1 ACT      -0.2040
     16 P         -15.9954   13.3280    6.0975 P.3         1 ACT       0.1348
     17 O1P       -16.5167   14.6023    5.6648 O.co2       1 ACT      -0.6653
     18 O2P       -16.2004   13.2490    7.5241 O.co2       1 ACT      -0.6653
     19 O3P       -14.5687   13.2811    5.8926 O.co2       1 ACT      -0.6653
     20 CB        -17.0914   15.3414   -5.1556 C.3         1 ACT      -0.0184
     21 CG        -16.0885   14.1882   -5.1377 C.3         1 ACT      -0.0184
     22 CA        -17.4818   13.9933   -4.5020 C.3         1 ACT       0.1329
     23 C         -18.5140   13.2872   -5.2334 C.2         1 ACT       0.2267
     24 O         -18.2089   12.2893   -5.8742 O.2         1 ACT      -0.3419
     25 N         -17.6454   14.1254   -3.0865 N.am        1 ACT      -0.2738
     26 N         -19.7692   13.6797   -5.1022 N.am        1 ACT      -0.2608
     27 CA        -20.9288   13.0128   -5.6167 C.3         1 ACT       0.1474
     28 C         -22.1031   13.7314   -5.1355 C.2         1 ACT       0.2017
     29 O         -22.1835   14.0945   -3.9707 O.2         1 ACT      -0.3945
     30 CB        -21.0090   11.4786   -5.2834 C.3         1 ACT       0.0774
     31 CG        -20.7309   11.1241   -3.8995 C.2         1 ACT       0.1781
     32 OD1       -21.3181   11.6837   -2.9822 O.2         1 ACT      -0.3970
     33 ND2       -19.8109   10.2283   -3.5853 N.am        1 ACT      -0.3007
     34 N         -23.1064   14.0398   -5.9298 N.am        1 ACT      -0.2988
     35 H1        -19.0458   17.2347   -0.0814 H           1 ACT       0.0467
     36 H2        -17.7121   18.2119   -0.7191 H           1 ACT       0.0467
     37 H3        -17.7989   17.8519    1.0208 H           1 ACT       0.0467
     38 H4        -18.7199   15.1198   -0.5641 H           1 ACT       0.1885
     39 H5        -16.1088   13.8635   -0.2409 H           1 ACT       0.0840
     40 H6        -17.7128   11.7475   -0.6066 H           1 ACT       0.0584
     41 H7        -18.9908   12.8849   -0.2468 H           1 ACT       0.0584
     42 H8        -19.5032   13.1605    2.1004 H           1 ACT       0.0703
     43 H9        -15.6434   11.8037    1.0645 H           1 ACT       0.0703
     44 H10       -18.9522   12.9200    4.4319 H           1 ACT       0.0736
     45 H11       -15.1061   11.5610    3.3934 H           1 ACT       0.0736
     46 H12       -17.4960   15.5742   -6.1454 H           1 ACT       0.0276
     47 H13       -16.8258   16.1721   -4.4936 H           1 ACT       0.0276
     48 H14       -15.2547   14.2932   -4.4385 H           1 ACT       0.0276
     49 H15       -15.9170   13.6926   -6.0976 H           1 ACT       0.0276
     50 H16       -18.4323   14.6082   -2.7839 H           1 ACT       0.1839
     51 H17       -19.9149   14.4783   -4.5734 H           1 ACT       0.1891
     52 H18       -20.8971   13.1088   -6.7081 H           1 ACT       0.0828
     53 H19       -20.2937   10.9550   -5.9297 H           1 ACT       0.0551
     54 H20       -21.9928   11.0736   -5.5450 H           1 ACT       0.0551
     55 H21       -19.6288   10.0248   -2.6551 H           1 ACT       0.1814
     56 H22       -19.3232    9.7697   -4.2863 H           1 ACT       0.1814
     57 H23       -23.8768   14.5191   -5.5786 H           1 ACT       0.1815
     58 H24       -23.0964   13.7748   -6.8637 H           1 ACT       0.1815
@<TRIPOS>BOND
     1     1     2   2
     2     1     3   1
     3     4     1  am
     4     5     4   1
     5     6     5   1
     6     5     8   1
     7     6     7   2
     8    25     6  am
     9     8     9   1
    10     9    10  ar
    11     9    11  ar
    12    10    12  ar
    13    11    13  ar
    14    12    14  ar
    15    13    14  ar
    16    14    15   1
    17    15    16   1
    18    16    17  ar
    19    16    18  ar
    20    16    19  ar
    21    21    20   1
    22    22    20   1
    23    22    21   1
    24    22    23   1
    25    22    25   1
    26    23    24   2
    27    23    26  am
    28    26    27   1
    29    27    28   1
    30    27    30   1
    31    28    29   2
    32    28    34  am
    33    30    31   1
    34    31    32   2
    35    31    33  am
    36     3    35   1
    37     3    36   1
    38     3    37   1
    39     4    38   1
    40     5    39   1
    41     8    40   1
    42     8    41   1
    43    10    42   1
    44    11    43   1
    45    12    44   1
    46    13    45   1
    47    20    46   1
    48    20    47   1
    49    21    48   1
    50    21    49   1
    51    25    50   1
    52    26    51   1
    53    27    52   1
    54    30    53   1
    55    30    54   1
    56    33    55   1
    57    33    56   1
    58    34    57   1
    59    34    58   1
@<TRIPOS>SUBSTRUCTURE
     1  ACT      1

