@<TRIPOS>MOLECULE
3ov1_ligand_045
    58    59
SMALL
GAST_HUCK
****
This file was generated by PARSER (from files_GN.cpp)

@<TRIPOS>ATOM
      1 C         -16.9245   12.3825   -0.4091 C.2         1 ACT       0.1753
      2 O         -17.8596   13.1626   -0.2679 O.2         1 ACT      -0.3972
      3 CH3       -16.8906   11.5743   -1.6073 C.3         1 ACT       0.0258
      4 N         -15.9615   12.2579    0.4938 N.am        1 ACT      -0.2628
      5 CA        -15.8286   12.9567    1.7424 C.3         1 ACT       0.1465
      6 C         -14.6001   13.7533    1.7327 C.2         1 ACT       0.2045
      7 O         -14.6410   14.9044    2.1545 O.2         1 ACT      -0.3944
      8 CB        -15.8571   11.9185    2.9074 C.3         1 ACT       0.0400
      9 CG        -15.8883   12.5655    4.2459 C.ar        1 ACT      -0.0004
     10 CD1       -17.1161   12.8786    4.8824 C.ar        1 ACT      -0.0239
     11 CD2       -14.6862   12.9394    4.8843 C.ar        1 ACT      -0.0239
     12 CE1       -17.1323   13.5390    6.1206 C.ar        1 ACT       0.0115
     13 CE2       -14.7047   13.6166    6.1117 C.ar        1 ACT       0.0115
     14 CZ        -15.9276   13.9386    6.7359 C.ar        1 ACT       0.1728
     15 OH        -15.9670   14.5506    7.9566 O.3         1 ACT      -0.2040
     16 P         -15.7463   16.0948    7.9100 P.3         1 ACT       0.1348
     17 O1P       -16.4957   16.7783    6.8864 O.co2       1 ACT      -0.6653
     18 O2P       -16.1625   16.6308    9.1765 O.co2       1 ACT      -0.6653
     19 O3P       -14.3452   16.4195    7.7793 O.co2       1 ACT      -0.6653
     20 CB        -11.6409   14.1522   -0.1096 C.3         1 ACT      -0.0184
     21 CG        -11.9440   15.2922    0.8631 C.3         1 ACT      -0.0184
     22 CA        -12.1572   13.8288    1.3105 C.3         1 ACT       0.1329
     23 C         -11.1949   13.2686    2.2367 C.2         1 ACT       0.2267
     24 O         -10.3724   12.4440    1.8460 O.2         1 ACT      -0.3419
     25 N         -13.4569   13.2199    1.3117 N.am        1 ACT      -0.2738
     26 N         -11.3517   13.5429    3.5261 N.am        1 ACT      -0.2608
     27 CA        -10.6224   13.0121    4.6456 C.3         1 ACT       0.1474
     28 C          -9.3839   13.7614    4.8314 C.2         1 ACT       0.2017
     29 O          -8.2816   13.2737    4.6092 O.2         1 ACT      -0.3945
     30 CB        -10.4698   11.4539    4.6170 C.3         1 ACT       0.0774
     31 CG        -10.1299   10.7813    5.8603 C.2         1 ACT       0.1781
     32 OD1       -10.0186    9.5614    5.8651 O.2         1 ACT      -0.3970
     33 ND2        -9.9142   11.3980    7.0003 N.am        1 ACT      -0.3007
     34 N          -9.4153   14.9994    5.2750 N.am        1 ACT      -0.2988
     35 H1        -15.9907   10.9528   -1.6509 H           1 ACT       0.0467
     36 H2        -16.9042   12.2210   -2.4851 H           1 ACT       0.0467
     37 H3        -17.7629   10.9204   -1.6296 H           1 ACT       0.0467
     38 H4        -15.2718   11.5983    0.3074 H           1 ACT       0.1885
     39 H5        -16.6819   13.6292    1.8834 H           1 ACT       0.0840
     40 H6        -14.9907   11.2588    2.8344 H           1 ACT       0.0584
     41 H7        -16.7386   11.2789    2.8008 H           1 ACT       0.0584
     42 H8        -18.0038   12.6224    4.4423 H           1 ACT       0.0703
     43 H9        -13.7848   12.7247    4.4484 H           1 ACT       0.0703
     44 H10       -18.0247   13.7522    6.5698 H           1 ACT       0.0736
     45 H11       -13.8254   13.8947    6.5446 H           1 ACT       0.0736
     46 H12       -10.5723   14.0351   -0.3217 H           1 ACT       0.0276
     47 H13       -12.3499   14.0728   -0.9414 H           1 ACT       0.0276
     48 H14       -12.8321   15.8804    0.6170 H           1 ACT       0.0276
     49 H15       -11.0625   15.8061    1.2678 H           1 ACT       0.0276
     50 H16       -13.4895   12.2965    1.0109 H           1 ACT       0.1839
     51 H17       -12.0807   14.1500    3.7487 H           1 ACT       0.1891
     52 H18       -11.2531   13.2276    5.5115 H           1 ACT       0.0828
     53 H19        -9.7024   11.1770    3.8871 H           1 ACT       0.0551
     54 H20       -11.4151   11.0355    4.2570 H           1 ACT       0.0551
     55 H21        -9.7014   10.8832    7.7968 H           1 ACT       0.1814
     56 H22        -9.9601   12.3676    7.0586 H           1 ACT       0.1814
     57 H23        -8.5910   15.4897    5.4192 H           1 ACT       0.1815
     58 H24       -10.2648   15.4237    5.4810 H           1 ACT       0.1815
@<TRIPOS>BOND
     1     1     2   2
     2     1     3   1
     3     4     1  am
     4     5     4   1
     5     6     5   1
     6     5     8   1
     7     6     7   2
     8    25     6  am
     9     8     9   1
    10     9    10  ar
    11     9    11  ar
    12    10    12  ar
    13    11    13  ar
    14    12    14  ar
    15    13    14  ar
    16    14    15   1
    17    15    16   1
    18    16    17  ar
    19    16    18  ar
    20    16    19  ar
    21    21    20   1
    22    22    20   1
    23    22    21   1
    24    22    23   1
    25    22    25   1
    26    23    24   2
    27    23    26  am
    28    26    27   1
    29    27    28   1
    30    27    30   1
    31    28    29   2
    32    28    34  am
    33    30    31   1
    34    31    32   2
    35    31    33  am
    36     3    35   1
    37     3    36   1
    38     3    37   1
    39     4    38   1
    40     5    39   1
    41     8    40   1
    42     8    41   1
    43    10    42   1
    44    11    43   1
    45    12    44   1
    46    13    45   1
    47    20    46   1
    48    20    47   1
    49    21    48   1
    50    21    49   1
    51    25    50   1
    52    26    51   1
    53    27    52   1
    54    30    53   1
    55    30    54   1
    56    33    55   1
    57    33    56   1
    58    34    57   1
    59    34    58   1
@<TRIPOS>SUBSTRUCTURE
     1  ACT      1

