@<TRIPOS>MOLECULE
3ov1_ligand_010
    58    59
SMALL
GAST_HUCK
****
This file was generated by PARSER (from files_GN.cpp)

@<TRIPOS>ATOM
      1 C         -18.0429   13.0724    3.1327 C.2         1 ACT       0.1753
      2 O         -17.8026   11.8786    2.9725 O.2         1 ACT      -0.3972
      3 CH3       -18.8585   13.4637    4.2611 C.3         1 ACT       0.0258
      4 N         -17.5438   14.0042    2.3292 N.am        1 ACT      -0.2628
      5 CA        -16.6433   13.8499    1.2150 C.3         1 ACT       0.1465
      6 C         -17.1702   12.9062    0.2308 C.2         1 ACT       0.2045
      7 O         -17.1048   11.7045    0.4547 O.2         1 ACT      -0.3944
      8 CB        -15.1560   13.5562    1.6200 C.3         1 ACT       0.0400
      9 CG        -14.7332   14.1775    2.9111 C.ar        1 ACT      -0.0004
     10 CD1       -14.6576   15.5847    3.0455 C.ar        1 ACT      -0.0239
     11 CD2       -14.4448   13.3808    4.0478 C.ar        1 ACT      -0.0239
     12 CE1       -14.3885   16.1759    4.2954 C.ar        1 ACT       0.0115
     13 CE2       -14.1661   13.9729    5.2944 C.ar        1 ACT       0.0115
     14 CZ        -14.1767   15.3763    5.4369 C.ar        1 ACT       0.1728
     15 OH        -13.8928   15.9628    6.6404 O.3         1 ACT      -0.2040
     16 P         -15.0863   15.9884    7.6390 P.3         1 ACT       0.1348
     17 O1P       -14.6889   16.8075    8.7564 O.co2       1 ACT      -0.6653
     18 O2P       -16.2675   16.5937    7.0796 O.co2       1 ACT      -0.6653
     19 O3P       -15.3963   14.6880    8.1811 O.co2       1 ACT      -0.6653
     20 CB        -17.9274   12.6965   -3.2765 C.3         1 ACT      -0.0184
     21 CG        -17.7061   11.3782   -2.5328 C.3         1 ACT      -0.0184
     22 CA        -18.4401   12.5363   -1.8276 C.3         1 ACT       0.1329
     23 C         -19.8772   12.4945   -1.6882 C.2         1 ACT       0.2267
     24 O         -20.5210   13.4718   -2.0402 O.2         1 ACT      -0.3419
     25 N         -17.7362   13.3511   -0.8855 N.am        1 ACT      -0.2738
     26 N         -20.4327   11.4494   -1.0836 N.am        1 ACT      -0.2608
     27 CA        -21.8059   11.2622   -0.7172 C.3         1 ACT       0.1474
     28 C         -22.6755   11.1812   -1.8888 C.2         1 ACT       0.2017
     29 O         -23.0510   10.0951   -2.3102 O.2         1 ACT      -0.3945
     30 CB        -22.3019   12.2854    0.3609 C.3         1 ACT       0.0774
     31 CG        -21.8638   11.9677    1.7078 C.2         1 ACT       0.1781
     32 OD1       -20.7014   12.1524    2.0404 O.2         1 ACT      -0.3970
     33 ND2       -22.7009   11.4993    2.6050 N.am        1 ACT      -0.3007
     34 N         -23.1291   12.2521   -2.5040 N.am        1 ACT      -0.2988
     35 H1        -19.0163   14.5488    4.2917 H           1 ACT       0.0467
     36 H2        -18.3705   13.1616    5.1944 H           1 ACT       0.0467
     37 H3        -19.8322   12.9736    4.1889 H           1 ACT       0.0467
     38 H4        -17.7684   14.9246    2.5597 H           1 ACT       0.1885
     39 H5        -16.6321   14.8434    0.7504 H           1 ACT       0.0840
     40 H6        -14.4978   13.9294    0.8306 H           1 ACT       0.0584
     41 H7        -15.0033   12.4751    1.6677 H           1 ACT       0.0584
     42 H8        -14.8295   16.1914    2.2397 H           1 ACT       0.0703
     43 H9        -14.4645   12.3591    3.9836 H           1 ACT       0.0703
     44 H10       -14.3613   17.1970    4.3763 H           1 ACT       0.0736
     45 H11       -13.9795   13.3773    6.1030 H           1 ACT       0.0736
     46 H12       -18.6581   12.6365   -4.0895 H           1 ACT       0.0276
     47 H13       -17.0218   13.2890   -3.4267 H           1 ACT       0.0276
     48 H14       -16.6827   11.1868   -2.2069 H           1 ACT       0.0276
     49 H15       -18.3207   10.5407   -2.8723 H           1 ACT       0.0276
     50 H16       -17.7671   14.3095   -1.0338 H           1 ACT       0.1839
     51 H17       -19.8346   10.7200   -0.8461 H           1 ACT       0.1891
     52 H18       -21.8302   10.2710   -0.2477 H           1 ACT       0.0828
     53 H19       -23.3980   12.3303    0.3320 H           1 ACT       0.0551
     54 H20       -21.9535   13.2904    0.1150 H           1 ACT       0.0551
     55 H21       -22.3905   11.3076    3.5043 H           1 ACT       0.1814
     56 H22       -23.6292   11.3347    2.3621 H           1 ACT       0.1814
     57 H23       -23.7154   12.1631   -3.2726 H           1 ACT       0.1815
     58 H24       -22.9054   13.1390   -2.1788 H           1 ACT       0.1815
@<TRIPOS>BOND
     1     1     2   2
     2     1     3   1
     3     4     1  am
     4     5     4   1
     5     6     5   1
     6     5     8   1
     7     6     7   2
     8    25     6  am
     9     8     9   1
    10     9    10  ar
    11     9    11  ar
    12    10    12  ar
    13    11    13  ar
    14    12    14  ar
    15    13    14  ar
    16    14    15   1
    17    15    16   1
    18    16    17  ar
    19    16    18  ar
    20    16    19  ar
    21    21    20   1
    22    22    20   1
    23    22    21   1
    24    22    23   1
    25    22    25   1
    26    23    24   2
    27    23    26  am
    28    26    27   1
    29    27    28   1
    30    27    30   1
    31    28    29   2
    32    28    34  am
    33    30    31   1
    34    31    32   2
    35    31    33  am
    36     3    35   1
    37     3    36   1
    38     3    37   1
    39     4    38   1
    40     5    39   1
    41     8    40   1
    42     8    41   1
    43    10    42   1
    44    11    43   1
    45    12    44   1
    46    13    45   1
    47    20    46   1
    48    20    47   1
    49    21    48   1
    50    21    49   1
    51    25    50   1
    52    26    51   1
    53    27    52   1
    54    30    53   1
    55    30    54   1
    56    33    55   1
    57    33    56   1
    58    34    57   1
    59    34    58   1
@<TRIPOS>SUBSTRUCTURE
     1  ACT      1

