@<TRIPOS>MOLECULE
3ov1_ligand_038
    58    59
SMALL
GAST_HUCK
****
This file was generated by PARSER (from files_GN.cpp)

@<TRIPOS>ATOM
      1 C         -17.7123   12.9418    3.5793 C.2         1 ACT       0.1753
      2 O         -17.3594   11.7717    3.5108 O.2         1 ACT      -0.3972
      3 CH3       -18.6042   13.3300    4.6486 C.3         1 ACT       0.0258
      4 N         -17.2909   13.8547    2.7126 N.am        1 ACT      -0.2628
      5 CA        -16.3888   13.7007    1.6016 C.3         1 ACT       0.1465
      6 C         -16.9621   12.8376    0.5715 C.2         1 ACT       0.2045
      7 O         -17.0421   11.6319    0.7758 O.2         1 ACT      -0.3944
      8 CB        -14.9461   13.2963    2.0504 C.3         1 ACT       0.0400
      9 CG        -13.8813   13.7404    1.1060 C.ar        1 ACT      -0.0004
     10 CD1       -13.1188   14.9003    1.3830 C.ar        1 ACT      -0.0239
     11 CD2       -13.6305   13.0413   -0.0988 C.ar        1 ACT      -0.0239
     12 CE1       -12.1411   15.3539    0.4802 C.ar        1 ACT       0.0115
     13 CE2       -12.6423   13.4890   -0.9967 C.ar        1 ACT       0.0115
     14 CZ        -11.8767   14.6370   -0.7050 C.ar        1 ACT       0.1728
     15 OH        -10.9705   15.1092   -1.6174 O.3         1 ACT      -0.2040
     16 P          -9.4900   14.7288   -1.3073 P.3         1 ACT       0.1348
     17 O1P        -8.6793   15.2380   -2.3838 O.co2       1 ACT      -0.6653
     18 O2P        -9.0050   15.3384   -0.0944 O.co2       1 ACT      -0.6653
     19 O3P        -9.2865   13.3030   -1.2596 O.co2       1 ACT      -0.6653
     20 CB        -17.6226   12.8743   -2.9851 C.3         1 ACT      -0.0184
     21 CG        -17.4354   11.4994   -2.3427 C.3         1 ACT      -0.0184
     22 CA        -18.1452   12.6206   -1.5538 C.3         1 ACT       0.1329
     23 C         -19.5854   12.5999   -1.4203 C.2         1 ACT       0.2267
     24 O         -20.1871   13.6457   -1.6232 O.2         1 ACT      -0.3419
     25 N         -17.4206   13.3523   -0.5634 N.am        1 ACT      -0.2738
     26 N         -20.1877   11.4947   -0.9963 N.am        1 ACT      -0.2608
     27 CA        -21.5879   11.2702   -0.7452 C.3         1 ACT       0.1474
     28 C         -22.3621   11.1937   -1.9823 C.2         1 ACT       0.2017
     29 O         -22.8537   10.1320   -2.3429 O.2         1 ACT      -0.3945
     30 CB        -22.2156   12.2448    0.3031 C.3         1 ACT       0.0774
     31 CG        -21.7863   11.9741    1.6646 C.2         1 ACT       0.1781
     32 OD1       -20.6269   12.1713    1.9971 O.2         1 ACT      -0.3970
     33 ND2       -22.6182   11.4873    2.5625 N.am        1 ACT      -0.3007
     34 N         -22.6068   12.2424   -2.7343 N.am        1 ACT      -0.2988
     35 H1        -18.8185   14.4007    4.6250 H           1 ACT       0.0467
     36 H2        -18.1526   13.0932    5.6136 H           1 ACT       0.0467
     37 H3        -19.5472   12.7908    4.5550 H           1 ACT       0.0467
     38 H4        -17.6147   14.7588    2.8645 H           1 ACT       0.1885
     39 H5        -16.3161   14.7150    1.1963 H           1 ACT       0.0840
     40 H6        -14.8753   12.2155    2.1955 H           1 ACT       0.0584
     41 H7        -14.7588   13.7429    3.0326 H           1 ACT       0.0584
     42 H8        -13.2849   15.4378    2.2368 H           1 ACT       0.0703
     43 H9        -14.1719   12.2047   -0.3331 H           1 ACT       0.0703
     44 H10       -11.6230   16.2096    0.6854 H           1 ACT       0.0736
     45 H11       -12.4862   12.9807   -1.8712 H           1 ACT       0.0736
     46 H12       -18.3447   12.8877   -3.8051 H           1 ACT       0.0276
     47 H13       -16.6992   13.4493   -3.0910 H           1 ACT       0.0276
     48 H14       -16.4131   11.2616   -2.0409 H           1 ACT       0.0276
     49 H15       -18.0630   10.7074   -2.7584 H           1 ACT       0.0276
     50 H16       -17.3498   14.3137   -0.6891 H           1 ACT       0.1839
     51 H17       -19.6123   10.7294   -0.8400 H           1 ACT       0.1891
     52 H18       -21.6272   10.2731   -0.2908 H           1 ACT       0.0828
     53 H19       -23.3054   12.1659    0.2524 H           1 ACT       0.0551
     54 H20       -21.9705   13.2788    0.0634 H           1 ACT       0.0551
     55 H21       -22.3045   11.2798    3.4600 H           1 ACT       0.1814
     56 H22       -23.5452   11.3110    2.3205 H           1 ACT       0.1814
     57 H23       -23.1392   12.1408   -3.5378 H           1 ACT       0.1815
     58 H24       -22.2743   13.1177   -2.4831 H           1 ACT       0.1815
@<TRIPOS>BOND
     1     1     2   2
     2     1     3   1
     3     4     1  am
     4     5     4   1
     5     6     5   1
     6     5     8   1
     7     6     7   2
     8    25     6  am
     9     8     9   1
    10     9    10  ar
    11     9    11  ar
    12    10    12  ar
    13    11    13  ar
    14    12    14  ar
    15    13    14  ar
    16    14    15   1
    17    15    16   1
    18    16    17  ar
    19    16    18  ar
    20    16    19  ar
    21    21    20   1
    22    22    20   1
    23    22    21   1
    24    22    23   1
    25    22    25   1
    26    23    24   2
    27    23    26  am
    28    26    27   1
    29    27    28   1
    30    27    30   1
    31    28    29   2
    32    28    34  am
    33    30    31   1
    34    31    32   2
    35    31    33  am
    36     3    35   1
    37     3    36   1
    38     3    37   1
    39     4    38   1
    40     5    39   1
    41     8    40   1
    42     8    41   1
    43    10    42   1
    44    11    43   1
    45    12    44   1
    46    13    45   1
    47    20    46   1
    48    20    47   1
    49    21    48   1
    50    21    49   1
    51    25    50   1
    52    26    51   1
    53    27    52   1
    54    30    53   1
    55    30    54   1
    56    33    55   1
    57    33    56   1
    58    34    57   1
    59    34    58   1
@<TRIPOS>SUBSTRUCTURE
     1  ACT      1

