@<TRIPOS>MOLECULE
3ov1_ligand_066
    58    59
SMALL
GAST_HUCK
****
This file was generated by PARSER (from files_GN.cpp)

@<TRIPOS>ATOM
      1 C         -12.8295   13.7835   -1.9100 C.2         1 ACT       0.1753
      2 O         -12.1926   12.8753   -1.3919 O.2         1 ACT      -0.3972
      3 CH3       -12.6840   13.9928   -3.3329 C.3         1 ACT       0.0258
      4 N         -13.6973   14.5152   -1.2215 N.am        1 ACT      -0.2628
      5 CA        -14.0992   14.3911    0.1552 C.3         1 ACT       0.1465
      6 C         -13.1347   14.9963    1.0781 C.2         1 ACT       0.2045
      7 O         -13.5010   15.8891    1.8350 O.2         1 ACT      -0.3944
      8 CB        -14.5403   12.9347    0.5588 C.3         1 ACT       0.0400
      9 CG        -15.8921   12.8362    1.1788 C.ar        1 ACT      -0.0004
     10 CD1       -16.0800   12.3174    2.4803 C.ar        1 ACT      -0.0239
     11 CD2       -17.0330   13.2170    0.4331 C.ar        1 ACT      -0.0239
     12 CE1       -17.3699   12.2199    3.0329 C.ar        1 ACT       0.0115
     13 CE2       -18.3213   13.1427    0.9950 C.ar        1 ACT       0.0115
     14 CZ        -18.4967   12.6671    2.3094 C.ar        1 ACT       0.1728
     15 OH        -19.7714   12.5965    2.8043 O.3         1 ACT      -0.2040
     16 P         -20.1242   13.6397    3.9044 P.3         1 ACT       0.1348
     17 O1P       -19.3928   14.8867    3.8806 O.co2       1 ACT      -0.6653
     18 O2P       -21.5232   13.9545    3.7652 O.co2       1 ACT      -0.6653
     19 O3P       -19.9913   13.0297    5.2030 O.co2       1 ACT      -0.6653
     20 CB         -9.6718   15.6442    1.1630 C.3         1 ACT      -0.0184
     21 CG        -10.5159   16.5901    2.0175 C.3         1 ACT      -0.0184
     22 CA        -10.8550   15.0810    1.9832 C.3         1 ACT       0.1329
     23 C         -10.4554   14.2532    3.1014 C.2         1 ACT       0.2267
     24 O         -10.8499   14.5732    4.2141 O.2         1 ACT      -0.3419
     25 N         -11.8790   14.5723    1.1229 N.am        1 ACT      -0.2738
     26 N          -9.6790   13.1977    2.8835 N.am        1 ACT      -0.2608
     27 CA         -9.0182   12.3276    3.8239 C.3         1 ACT       0.1474
     28 C          -9.8974   11.5643    4.7101 C.2         1 ACT       0.2017
     29 O         -10.7454   12.1112    5.3989 O.2         1 ACT      -0.3945
     30 CB         -7.8144   12.9792    4.5782 C.3         1 ACT       0.0774
     31 CG         -8.1087   14.1123    5.4393 C.2         1 ACT       0.1781
     32 OD1        -8.1628   15.2428    4.9766 O.2         1 ACT      -0.3970
     33 ND2        -8.2010   13.9847    6.7445 N.am        1 ACT      -0.3007
     34 N          -9.7107   10.2755    4.9093 N.am        1 ACT      -0.2988
     35 H1        -13.2741   14.8433   -3.6851 H           1 ACT       0.0467
     36 H2        -13.0167   13.1021   -3.8724 H           1 ACT       0.0467
     37 H3        -11.6363   14.1805   -3.5734 H           1 ACT       0.0467
     38 H4        -14.1810   15.1827   -1.7323 H           1 ACT       0.1885
     39 H5        -14.9904   15.0255    0.1923 H           1 ACT       0.0840
     40 H6        -13.7816   12.4932    1.2120 H           1 ACT       0.0584
     41 H7        -14.5852   12.2927   -0.3234 H           1 ACT       0.0584
     42 H8        -15.2785   11.9987    3.0283 H           1 ACT       0.0703
     43 H9        -16.9366   13.5614   -0.5273 H           1 ACT       0.0703
     44 H10       -17.4879   11.8498    3.9757 H           1 ACT       0.0736
     45 H11       -19.1294   13.4540    0.4462 H           1 ACT       0.0736
     46 H12        -8.6531   15.5266    1.5422 H           1 ACT       0.0276
     47 H13        -9.8134   15.8051    0.0926 H           1 ACT       0.0276
     48 H14       -11.1671   17.2612    1.4507 H           1 ACT       0.0276
     49 H15       -10.0105   16.9730    2.9092 H           1 ACT       0.0276
     50 H16       -11.6322   13.8441    0.5319 H           1 ACT       0.1839
     51 H17        -9.4788   13.0160    1.9495 H           1 ACT       0.1891
     52 H18        -8.5373   11.5922    3.1692 H           1 ACT       0.0828
     53 H19        -7.0721   13.3060    3.8421 H           1 ACT       0.0551
     54 H20        -7.3257   12.1970    5.1706 H           1 ACT       0.0551
     55 H21        -8.3520   14.7702    7.2951 H           1 ACT       0.1814
     56 H22        -8.1023   13.1115    7.1588 H           1 ACT       0.1814
     57 H23       -10.2600    9.7991    5.5517 H           1 ACT       0.1815
     58 H24        -9.0009    9.8059    4.4408 H           1 ACT       0.1815
@<TRIPOS>BOND
     1     1     2   2
     2     1     3   1
     3     4     1  am
     4     5     4   1
     5     6     5   1
     6     5     8   1
     7     6     7   2
     8    25     6  am
     9     8     9   1
    10     9    10  ar
    11     9    11  ar
    12    10    12  ar
    13    11    13  ar
    14    12    14  ar
    15    13    14  ar
    16    14    15   1
    17    15    16   1
    18    16    17  ar
    19    16    18  ar
    20    16    19  ar
    21    21    20   1
    22    22    20   1
    23    22    21   1
    24    22    23   1
    25    22    25   1
    26    23    24   2
    27    23    26  am
    28    26    27   1
    29    27    28   1
    30    27    30   1
    31    28    29   2
    32    28    34  am
    33    30    31   1
    34    31    32   2
    35    31    33  am
    36     3    35   1
    37     3    36   1
    38     3    37   1
    39     4    38   1
    40     5    39   1
    41     8    40   1
    42     8    41   1
    43    10    42   1
    44    11    43   1
    45    12    44   1
    46    13    45   1
    47    20    46   1
    48    20    47   1
    49    21    48   1
    50    21    49   1
    51    25    50   1
    52    26    51   1
    53    27    52   1
    54    30    53   1
    55    30    54   1
    56    33    55   1
    57    33    56   1
    58    34    57   1
    59    34    58   1
@<TRIPOS>SUBSTRUCTURE
     1  ACT      1

