@<TRIPOS>MOLECULE
3ov1_ligand_037
    58    59
SMALL
GAST_HUCK
****
This file was generated by PARSER (from files_GN.cpp)

@<TRIPOS>ATOM
      1 C         -16.2083   12.1625    1.7053 C.2         1 ACT       0.1753
      2 O         -16.5713   11.6832    0.6401 O.2         1 ACT      -0.3972
      3 CH3       -16.4679   11.4067    2.9132 C.3         1 ACT       0.0258
      4 N         -15.6318   13.3521    1.7791 N.am        1 ACT      -0.2628
      5 CA        -15.3102   14.2519    0.6965 C.3         1 ACT       0.1465
      6 C         -13.8802   14.5830    0.6636 C.2         1 ACT       0.2045
      7 O         -13.5369   15.6431    0.1553 O.2         1 ACT      -0.3944
      8 CB        -16.2656   15.4897    0.7814 C.3         1 ACT       0.0400
      9 CG        -16.4102   16.1382    2.1232 C.ar        1 ACT      -0.0004
     10 CD1       -15.2969   16.6812    2.8113 C.ar        1 ACT      -0.0239
     11 CD2       -17.6846   16.2444    2.7315 C.ar        1 ACT      -0.0239
     12 CE1       -15.4487   17.2832    4.0787 C.ar        1 ACT       0.0115
     13 CE2       -17.8361   16.8648    3.9848 C.ar        1 ACT       0.0115
     14 CZ        -16.7287   17.4062    4.6619 C.ar        1 ACT       0.1728
     15 OH        -16.9260   17.9552    5.8997 O.3         1 ACT      -0.2040
     16 P         -16.5421   19.4595    6.0229 P.3         1 ACT       0.1348
     17 O1P       -15.1058   19.6260    6.0358 O.co2       1 ACT      -0.6653
     18 O2P       -17.1142   20.2925    4.9893 O.co2       1 ACT      -0.6653
     19 O3P       -17.0260   19.9478    7.2860 O.co2       1 ACT      -0.6653
     20 CB        -10.8049   12.6867    0.4329 C.3         1 ACT      -0.0184
     21 CG        -10.7985   14.0127   -0.3289 C.3         1 ACT      -0.0184
     22 CA        -11.5443   13.9087    1.0191 C.3         1 ACT       0.1329
     23 C         -10.9386   14.3757    2.2527 C.2         1 ACT       0.2267
     24 O         -10.1100   15.2723    2.2076 O.2         1 ACT      -0.3419
     25 N         -12.9594   13.7003    1.0282 N.am        1 ACT      -0.2738
     26 N         -11.2933   13.8133    3.4022 N.am        1 ACT      -0.2608
     27 CA        -10.7119   14.0211    4.7038 C.3         1 ACT       0.1474
     28 C         -10.9194   15.3875    5.1748 C.2         1 ACT       0.2017
     29 O         -10.0038   16.0827    5.5956 O.2         1 ACT      -0.3945
     30 CB         -9.2295   13.5150    4.7459 C.3         1 ACT       0.0774
     31 CG         -9.0268   12.2123    4.1261 C.2         1 ACT       0.1781
     32 OD1        -9.4686   12.0028    3.0067 O.2         1 ACT      -0.3970
     33 ND2        -8.3237   11.2485    4.6972 N.am        1 ACT      -0.3007
     34 N         -12.1177   15.9334    5.1482 N.am        1 ACT      -0.2988
     35 H1        -16.0756   11.9112    3.7996 H           1 ACT       0.0467
     36 H2        -16.0029   10.4190    2.8499 H           1 ACT       0.0467
     37 H3        -17.5454   11.2802    3.0402 H           1 ACT       0.0467
     38 H4        -15.3991   13.6621    2.6696 H           1 ACT       0.1885
     39 H5        -15.5171   13.7720   -0.2672 H           1 ACT       0.0840
     40 H6        -17.2445   15.1568    0.4290 H           1 ACT       0.0584
     41 H7        -15.9472   16.2594    0.0731 H           1 ACT       0.0584
     42 H8        -14.3619   16.6432    2.3887 H           1 ACT       0.0703
     43 H9        -18.5185   15.8752    2.2675 H           1 ACT       0.0703
     44 H10       -14.6233   17.6382    4.5664 H           1 ACT       0.0736
     45 H11       -18.7641   16.9259    4.4127 H           1 ACT       0.0736
     46 H12        -9.8106   12.4212    0.8079 H           1 ACT       0.0276
     47 H13       -11.4073   11.9074   -0.0493 H           1 ACT       0.0276
     48 H14       -11.4013   14.0121   -1.2392 H           1 ACT       0.0276
     49 H15        -9.8414   14.5394   -0.3357 H           1 ACT       0.0276
     50 H16       -13.2688   12.8376    1.3449 H           1 ACT       0.1839
     51 H17       -12.0072   13.1557    3.3604 H           1 ACT       0.1891
     52 H18       -11.2650   13.3753    5.3901 H           1 ACT       0.0828
     53 H19        -8.9116   13.4727    5.7929 H           1 ACT       0.0551
     54 H20        -8.5794   14.2385    4.2413 H           1 ACT       0.0551
     55 H21        -8.1874   10.4018    4.2388 H           1 ACT       0.1814
     56 H22        -7.9275   11.3852    5.5746 H           1 ACT       0.1814
     57 H23       -12.2458   16.8486    5.4479 H           1 ACT       0.1815
     58 H24       -12.8752   15.4299    4.8094 H           1 ACT       0.1815
@<TRIPOS>BOND
     1     1     2   2
     2     1     3   1
     3     4     1  am
     4     5     4   1
     5     6     5   1
     6     5     8   1
     7     6     7   2
     8    25     6  am
     9     8     9   1
    10     9    10  ar
    11     9    11  ar
    12    10    12  ar
    13    11    13  ar
    14    12    14  ar
    15    13    14  ar
    16    14    15   1
    17    15    16   1
    18    16    17  ar
    19    16    18  ar
    20    16    19  ar
    21    21    20   1
    22    22    20   1
    23    22    21   1
    24    22    23   1
    25    22    25   1
    26    23    24   2
    27    23    26  am
    28    26    27   1
    29    27    28   1
    30    27    30   1
    31    28    29   2
    32    28    34  am
    33    30    31   1
    34    31    32   2
    35    31    33  am
    36     3    35   1
    37     3    36   1
    38     3    37   1
    39     4    38   1
    40     5    39   1
    41     8    40   1
    42     8    41   1
    43    10    42   1
    44    11    43   1
    45    12    44   1
    46    13    45   1
    47    20    46   1
    48    20    47   1
    49    21    48   1
    50    21    49   1
    51    25    50   1
    52    26    51   1
    53    27    52   1
    54    30    53   1
    55    30    54   1
    56    33    55   1
    57    33    56   1
    58    34    57   1
    59    34    58   1
@<TRIPOS>SUBSTRUCTURE
     1  ACT      1

