@<TRIPOS>MOLECULE
3ov1_ligand_018
    58    59
SMALL
GAST_HUCK
****
This file was generated by PARSER (from files_GN.cpp)

@<TRIPOS>ATOM
      1 C         -11.4412   12.8311    5.2415 C.2         1 ACT       0.1753
      2 O         -12.4556   12.5878    4.5848 O.2         1 ACT      -0.3972
      3 CH3       -10.8004   11.7279    5.9319 C.3         1 ACT       0.0258
      4 N         -10.9411   14.0488    5.3353 N.am        1 ACT      -0.2628
      5 CA        -11.4588   15.3148    4.8462 C.3         1 ACT       0.1465
      6 C         -12.6244   15.7410    5.6273 C.2         1 ACT       0.2045
      7 O         -12.6358   16.8623    6.1354 O.2         1 ACT      -0.3944
      8 CB        -11.7002   15.3854    3.2958 C.3         1 ACT       0.0400
      9 CG        -10.7381   16.2746    2.5825 C.ar        1 ACT      -0.0004
     10 CD1        -9.7837   15.7570    1.6730 C.ar        1 ACT      -0.0239
     11 CD2       -10.7799   17.6748    2.7912 C.ar        1 ACT      -0.0239
     12 CE1        -8.8782   16.6161    1.0144 C.ar        1 ACT       0.0115
     13 CE2        -9.8779   18.5304    2.1357 C.ar        1 ACT       0.0115
     14 CZ         -8.8967   18.0005    1.2685 C.ar        1 ACT       0.1728
     15 OH         -8.0393   18.8369    0.5978 O.3         1 ACT      -0.2040
     16 P          -6.5956   18.8109    1.1598 P.3         1 ACT       0.1348
     17 O1P        -5.7340   18.9961    0.0095 O.co2       1 ACT      -0.6653
     18 O2P        -6.2692   19.8679    2.0995 O.co2       1 ACT      -0.6653
     19 O3P        -6.2393   17.5184    1.6993 O.co2       1 ACT      -0.6653
     20 CB        -14.9548   15.8308    7.8859 C.3         1 ACT      -0.0184
     21 CG        -15.4763   16.4693    6.5831 C.3         1 ACT      -0.0184
     22 CA        -14.8602   15.0422    6.5530 C.3         1 ACT       0.1329
     23 C         -15.8120   13.9753    6.3426 C.2         1 ACT       0.2267
     24 O         -16.2307   13.3387    7.3101 O.2         1 ACT      -0.3419
     25 N         -13.6736   14.9341    5.7398 N.am        1 ACT      -0.2738
     26 N         -16.1491   13.6607    5.0922 N.am        1 ACT      -0.2608
     27 CA        -16.9302   12.5446    4.6382 C.3         1 ACT       0.1474
     28 C         -16.2196   11.8032    3.6029 C.2         1 ACT       0.2017
     29 O         -16.4883   10.6248    3.4085 O.2         1 ACT      -0.3945
     30 CB        -18.3215   13.0471    4.1286 C.3         1 ACT       0.0774
     31 CG        -19.3691   13.1478    5.1318 C.2         1 ACT       0.1781
     32 OD1       -19.1656   12.8991    6.3112 O.2         1 ACT      -0.3970
     33 ND2       -20.5975   13.4688    4.7970 N.am        1 ACT      -0.3007
     34 N         -15.3360   12.3436    2.7877 N.am        1 ACT      -0.2988
     35 H1         -9.9483   12.0747    6.5283 H           1 ACT       0.0467
     36 H2        -10.4461   10.9941    5.2049 H           1 ACT       0.0467
     37 H3        -11.5143   11.2470    6.6032 H           1 ACT       0.0467
     38 H4        -10.1207   14.1331    5.8642 H           1 ACT       0.1885
     39 H5        -10.6598   16.0193    5.0844 H           1 ACT       0.0840
     40 H6        -12.7064   15.7661    3.0822 H           1 ACT       0.0584
     41 H7        -11.6687   14.3800    2.8751 H           1 ACT       0.0584
     42 H8         -9.7338   14.7526    1.4872 H           1 ACT       0.0703
     43 H9        -11.4689   18.0831    3.4251 H           1 ACT       0.0703
     44 H10        -8.2056   16.2264    0.3527 H           1 ACT       0.0736
     45 H11        -9.9257   19.5431    2.2896 H           1 ACT       0.0736
     46 H12       -15.7451   15.5559    8.5898 H           1 ACT       0.0276
     47 H13       -14.0429   16.2673    8.2921 H           1 ACT       0.0276
     48 H14       -14.8571   17.2957    6.2141 H           1 ACT       0.0276
     49 H15       -16.5677   16.5560    6.5398 H           1 ACT       0.0276
     50 H16       -13.6300   14.1132    5.2173 H           1 ACT       0.1839
     51 H17       -15.7875   14.2377    4.4002 H           1 ACT       0.1891
     52 H18       -17.1072   11.8448    5.4652 H           1 ACT       0.0828
     53 H19       -18.6877   12.3628    3.3579 H           1 ACT       0.0551
     54 H20       -18.1931   14.0273    3.6555 H           1 ACT       0.0551
     55 H21       -21.2974   13.4988    5.4733 H           1 ACT       0.1814
     56 H22       -20.8180   13.6647    3.8725 H           1 ACT       0.1814
     57 H23       -14.8981   11.7879    2.1189 H           1 ACT       0.1815
     58 H24       -15.1005   13.2846    2.8601 H           1 ACT       0.1815
@<TRIPOS>BOND
     1     1     2   2
     2     1     3   1
     3     4     1  am
     4     5     4   1
     5     6     5   1
     6     5     8   1
     7     6     7   2
     8    25     6  am
     9     8     9   1
    10     9    10  ar
    11     9    11  ar
    12    10    12  ar
    13    11    13  ar
    14    12    14  ar
    15    13    14  ar
    16    14    15   1
    17    15    16   1
    18    16    17  ar
    19    16    18  ar
    20    16    19  ar
    21    21    20   1
    22    22    20   1
    23    22    21   1
    24    22    23   1
    25    22    25   1
    26    23    24   2
    27    23    26  am
    28    26    27   1
    29    27    28   1
    30    27    30   1
    31    28    29   2
    32    28    34  am
    33    30    31   1
    34    31    32   2
    35    31    33  am
    36     3    35   1
    37     3    36   1
    38     3    37   1
    39     4    38   1
    40     5    39   1
    41     8    40   1
    42     8    41   1
    43    10    42   1
    44    11    43   1
    45    12    44   1
    46    13    45   1
    47    20    46   1
    48    20    47   1
    49    21    48   1
    50    21    49   1
    51    25    50   1
    52    26    51   1
    53    27    52   1
    54    30    53   1
    55    30    54   1
    56    33    55   1
    57    33    56   1
    58    34    57   1
    59    34    58   1
@<TRIPOS>SUBSTRUCTURE
     1  ACT      1

