@<TRIPOS>MOLECULE
3ov1_ligand_053
    58    59
SMALL
GAST_HUCK
****
This file was generated by PARSER (from files_GN.cpp)

@<TRIPOS>ATOM
      1 C         -20.8724   12.2184   -0.9603 C.2         1 ACT       0.1753
      2 O         -20.8746   13.4334   -0.8054 O.2         1 ACT      -0.3972
      3 CH3       -22.0495   11.5993   -1.5263 C.3         1 ACT       0.0258
      4 N         -19.8175   11.4715   -0.6488 N.am        1 ACT      -0.2628
      5 CA        -18.5535   11.8689   -0.0870 C.3         1 ACT       0.1465
      6 C         -18.6876   12.2321    1.3276 C.2         1 ACT       0.2045
      7 O         -18.0319   11.6355    2.1730 O.2         1 ACT      -0.3944
      8 CB        -17.8040   12.9383   -0.9447 C.3         1 ACT       0.0400
      9 CG        -16.3228   12.9396   -0.7796 C.ar        1 ACT      -0.0004
     10 CD1       -15.6466   14.0461   -0.2158 C.ar        1 ACT      -0.0239
     11 CD2       -15.5514   11.8607   -1.2781 C.ar        1 ACT      -0.0239
     12 CE1       -14.2396   14.0765   -0.1563 C.ar        1 ACT       0.0115
     13 CE2       -14.1449   11.8955   -1.2266 C.ar        1 ACT       0.0115
     14 CZ        -13.4779   12.9971   -0.6461 C.ar        1 ACT       0.1728
     15 OH        -12.1122   13.1068   -0.6743 O.3         1 ACT      -0.2040
     16 P         -11.3698   12.3272    0.4455 P.3         1 ACT       0.1348
     17 O1P       -11.1142   10.9546    0.0794 O.co2       1 ACT      -0.6653
     18 O2P       -10.0800   12.9538    0.6133 O.co2       1 ACT      -0.6653
     19 O3P       -12.0175   12.3776    1.7340 O.co2       1 ACT      -0.6653
     20 CB        -20.9629   14.6004    3.1289 C.3         1 ACT      -0.0184
     21 CG        -21.1864   13.1498    3.5712 C.3         1 ACT      -0.0184
     22 CA        -19.7919   13.5876    3.0633 C.3         1 ACT       0.1329
     23 C         -18.7176   13.7971    4.0372 C.2         1 ACT       0.2267
     24 O         -18.9797   14.0144    5.2173 O.2         1 ACT      -0.3419
     25 N         -19.5059   13.2065    1.7089 N.am        1 ACT      -0.2738
     26 N         -17.4566   13.6766    3.6365 N.am        1 ACT      -0.2608
     27 CA        -16.2295   13.8257    4.3842 C.3         1 ACT       0.1474
     28 C         -15.1919   13.1740    3.5948 C.2         1 ACT       0.2017
     29 O         -14.1249   13.7322    3.3729 O.2         1 ACT      -0.3945
     30 CB        -16.2242   13.2415    5.8441 C.3         1 ACT       0.0774
     31 CG        -16.5660   14.1961    6.8883 C.2         1 ACT       0.1781
     32 OD1       -17.4033   13.9403    7.7472 O.2         1 ACT      -0.3970
     33 ND2       -15.9230   15.3450    7.0023 N.am        1 ACT      -0.3007
     34 N         -15.3673   11.9654    3.0951 N.am        1 ACT      -0.2988
     35 H1        -21.9324   10.5151   -1.6336 H           1 ACT       0.0467
     36 H2        -22.2458   12.0264   -2.5126 H           1 ACT       0.0467
     37 H3        -22.9051   11.7927   -0.8759 H           1 ACT       0.0467
     38 H4        -19.8903   10.5223   -0.8518 H           1 ACT       0.1885
     39 H5        -17.9631   10.9500   -0.1480 H           1 ACT       0.0840
     40 H6        -18.2090   13.9305   -0.7250 H           1 ACT       0.0584
     41 H7        -18.0142   12.7566   -2.0037 H           1 ACT       0.0584
     42 H8        -16.1722   14.8507    0.1333 H           1 ACT       0.0703
     43 H9        -16.0092   11.0583   -1.7203 H           1 ACT       0.0703
     44 H10       -13.7696   14.8961    0.2298 H           1 ACT       0.0736
     45 H11       -13.6067   11.1221   -1.6259 H           1 ACT       0.0736
     46 H12       -20.9815   15.3202    3.9471 H           1 ACT       0.0276
     47 H13       -21.4592   14.8623    2.1931 H           1 ACT       0.0276
     48 H14       -21.8073   12.5633    2.8882 H           1 ACT       0.0276
     49 H15       -21.3230   13.0231    4.6466 H           1 ACT       0.0276
     50 H16       -19.9874   13.6874    1.0117 H           1 ACT       0.1839
     51 H17       -17.3352   13.4706    2.6965 H           1 ACT       0.1891
     52 H18       -16.0072   14.8977    4.4307 H           1 ACT       0.0828
     53 H19       -15.2254   12.8690    6.1150 H           1 ACT       0.0551
     54 H20       -16.9059   12.3844    5.8879 H           1 ACT       0.0551
     55 H21       -16.1436   15.9571    7.7319 H           1 ACT       0.1814
     56 H22       -15.2155   15.5780    6.3728 H           1 ACT       0.1814
     57 H23       -14.6859   11.5526    2.5399 H           1 ACT       0.1815
     58 H24       -16.2131   11.5096    3.2327 H           1 ACT       0.1815
@<TRIPOS>BOND
     1     1     2   2
     2     1     3   1
     3     4     1  am
     4     5     4   1
     5     6     5   1
     6     5     8   1
     7     6     7   2
     8    25     6  am
     9     8     9   1
    10     9    10  ar
    11     9    11  ar
    12    10    12  ar
    13    11    13  ar
    14    12    14  ar
    15    13    14  ar
    16    14    15   1
    17    15    16   1
    18    16    17  ar
    19    16    18  ar
    20    16    19  ar
    21    21    20   1
    22    22    20   1
    23    22    21   1
    24    22    23   1
    25    22    25   1
    26    23    24   2
    27    23    26  am
    28    26    27   1
    29    27    28   1
    30    27    30   1
    31    28    29   2
    32    28    34  am
    33    30    31   1
    34    31    32   2
    35    31    33  am
    36     3    35   1
    37     3    36   1
    38     3    37   1
    39     4    38   1
    40     5    39   1
    41     8    40   1
    42     8    41   1
    43    10    42   1
    44    11    43   1
    45    12    44   1
    46    13    45   1
    47    20    46   1
    48    20    47   1
    49    21    48   1
    50    21    49   1
    51    25    50   1
    52    26    51   1
    53    27    52   1
    54    30    53   1
    55    30    54   1
    56    33    55   1
    57    33    56   1
    58    34    57   1
    59    34    58   1
@<TRIPOS>SUBSTRUCTURE
     1  ACT      1

