@<TRIPOS>MOLECULE
3ov1_ligand_090
    58    59
SMALL
GAST_HUCK
****
This file was generated by PARSER (from files_GN.cpp)

@<TRIPOS>ATOM
      1 C         -16.4236   13.3137   -2.2925 C.2         1 ACT       0.1753
      2 O         -17.3559   12.9550   -1.5792 O.2         1 ACT      -0.3972
      3 CH3       -16.7390   14.0356   -3.5047 C.3         1 ACT       0.0258
      4 N         -15.1592   13.0599   -1.9730 N.am        1 ACT      -0.2628
      5 CA        -14.6708   12.2988   -0.8532 C.3         1 ACT       0.1465
      6 C         -15.4147   12.5906    0.3702 C.2         1 ACT       0.2045
      7 O         -16.1589   11.7362    0.8357 O.2         1 ACT      -0.3944
      8 CB        -13.1457   12.5755   -0.6360 C.3         1 ACT       0.0400
      9 CG        -12.2515   11.9154   -1.6277 C.ar        1 ACT      -0.0004
     10 CD1       -11.7200   10.6286   -1.3763 C.ar        1 ACT      -0.0239
     11 CD2       -11.8635   12.5808   -2.8164 C.ar        1 ACT      -0.0239
     12 CE1       -10.8349   10.0218   -2.2824 C.ar        1 ACT       0.0115
     13 CE2       -10.9706   11.9754   -3.7240 C.ar        1 ACT       0.0115
     14 CZ        -10.4684   10.6796   -3.4717 C.ar        1 ACT       0.1728
     15 OH         -9.5498   10.0875   -4.3016 O.3         1 ACT      -0.2040
     16 P         -10.1660    9.3246   -5.5101 P.3         1 ACT       0.1348
     17 O1P       -10.3160   10.1909   -6.6555 O.co2       1 ACT      -0.6653
     18 O2P        -9.2356    8.2873   -5.8857 O.co2       1 ACT      -0.6653
     19 O3P       -11.4124    8.6610   -5.2262 O.co2       1 ACT      -0.6653
     20 CB        -16.6621   15.3814    2.1016 C.3         1 ACT      -0.0184
     21 CG        -17.3058   14.0405    2.4313 C.3         1 ACT      -0.0184
     22 CA        -15.7740   14.1278    2.2570 C.3         1 ACT       0.1329
     23 C         -14.8689   14.2283    3.3983 C.2         1 ACT       0.2267
     24 O         -15.2828   13.9350    4.5129 O.2         1 ACT      -0.3419
     25 N         -15.2167   13.7471    0.9939 N.am        1 ACT      -0.2738
     26 N         -13.6224   14.6641    3.2240 N.am        1 ACT      -0.2608
     27 CA        -12.6045   14.9176    4.2156 C.3         1 ACT       0.1474
     28 C         -12.1570   13.7165    4.9100 C.2         1 ACT       0.2017
     29 O         -12.9324   12.8129    5.1847 O.2         1 ACT      -0.3945
     30 CB        -12.9784   16.0499    5.2264 C.3         1 ACT       0.0774
     31 CG        -13.4103   17.2847    4.5817 C.2         1 ACT       0.1781
     32 OD1       -14.5747   17.6448    4.6402 O.2         1 ACT      -0.3970
     33 ND2       -12.5594   18.0429    3.9396 N.am        1 ACT      -0.3007
     34 N         -10.9312   13.5992    5.3709 N.am        1 ACT      -0.2988
     35 H1        -15.8440   14.2282   -4.1064 H           1 ACT       0.0467
     36 H2        -17.1985   14.9943   -3.2578 H           1 ACT       0.0467
     37 H3        -17.4374   13.4539   -4.1101 H           1 ACT       0.0467
     38 H4        -14.4905   13.4089   -2.5827 H           1 ACT       0.1885
     39 H5        -14.7878   11.2358   -1.1025 H           1 ACT       0.0840
     40 H6        -12.8571   12.2492    0.3684 H           1 ACT       0.0584
     41 H7        -12.9642   13.6562   -0.6572 H           1 ACT       0.0584
     42 H8        -11.9606   10.1256   -0.5181 H           1 ACT       0.0703
     43 H9        -12.2086   13.5222   -3.0161 H           1 ACT       0.0703
     44 H10       -10.4459    9.0986   -2.0723 H           1 ACT       0.0736
     45 H11       -10.6826   12.4820   -4.5637 H           1 ACT       0.0736
     46 H12       -16.7238   16.1008    2.9253 H           1 ACT       0.0276
     47 H13       -16.8908   15.7363    1.0920 H           1 ACT       0.0276
     48 H14       -17.8765   13.5929    1.6131 H           1 ACT       0.0276
     49 H15       -17.6912   13.9356    3.4497 H           1 ACT       0.0276
     50 H16       -14.6167   14.3821    0.5708 H           1 ACT       0.1839
     51 H17       -13.3741   14.8856    2.3135 H           1 ACT       0.1891
     52 H18       -11.7496   15.2949    3.6421 H           1 ACT       0.0828
     53 H19       -12.1096   16.2881    5.8455 H           1 ACT       0.0551
     54 H20       -13.7621   15.6908    5.8993 H           1 ACT       0.0551
     55 H21       -12.8624   18.8673    3.5172 H           1 ACT       0.1814
     56 H22       -11.6242   17.7851    3.8617 H           1 ACT       0.1814
     57 H23       -10.6790   12.8055    5.8699 H           1 ACT       0.1815
     58 H24       -10.2814   14.3075    5.2367 H           1 ACT       0.1815
@<TRIPOS>BOND
     1     1     2   2
     2     1     3   1
     3     4     1  am
     4     5     4   1
     5     6     5   1
     6     5     8   1
     7     6     7   2
     8    25     6  am
     9     8     9   1
    10     9    10  ar
    11     9    11  ar
    12    10    12  ar
    13    11    13  ar
    14    12    14  ar
    15    13    14  ar
    16    14    15   1
    17    15    16   1
    18    16    17  ar
    19    16    18  ar
    20    16    19  ar
    21    21    20   1
    22    22    20   1
    23    22    21   1
    24    22    23   1
    25    22    25   1
    26    23    24   2
    27    23    26  am
    28    26    27   1
    29    27    28   1
    30    27    30   1
    31    28    29   2
    32    28    34  am
    33    30    31   1
    34    31    32   2
    35    31    33  am
    36     3    35   1
    37     3    36   1
    38     3    37   1
    39     4    38   1
    40     5    39   1
    41     8    40   1
    42     8    41   1
    43    10    42   1
    44    11    43   1
    45    12    44   1
    46    13    45   1
    47    20    46   1
    48    20    47   1
    49    21    48   1
    50    21    49   1
    51    25    50   1
    52    26    51   1
    53    27    52   1
    54    30    53   1
    55    30    54   1
    56    33    55   1
    57    33    56   1
    58    34    57   1
    59    34    58   1
@<TRIPOS>SUBSTRUCTURE
     1  ACT      1

