@<TRIPOS>MOLECULE
3ov1_ligand_027
    58    59
SMALL
GAST_HUCK
****
This file was generated by PARSER (from files_GN.cpp)

@<TRIPOS>ATOM
      1 C         -17.2687   12.4866   -0.9271 C.2         1 ACT       0.1753
      2 O         -17.1807   11.3303   -0.5393 O.2         1 ACT      -0.3972
      3 CH3       -17.9333   12.6978   -2.1867 C.3         1 ACT       0.0258
      4 N         -16.8292   13.5163   -0.2214 N.am        1 ACT      -0.2628
      5 CA        -16.3405   13.5921    1.1293 C.3         1 ACT       0.1465
      6 C         -14.9590   14.0574    1.0670 C.2         1 ACT       0.2045
      7 O         -14.7395   15.2719    0.9967 O.2         1 ACT      -0.3944
      8 CB        -16.5434   12.3567    2.0765 C.3         1 ACT       0.0400
      9 CG        -16.4745   12.6923    3.5305 C.ar        1 ACT      -0.0004
     10 CD1       -15.2304   12.9362    4.1552 C.ar        1 ACT      -0.0239
     11 CD2       -17.6488   12.7774    4.3100 C.ar        1 ACT      -0.0239
     12 CE1       -15.1716   13.3187    5.5026 C.ar        1 ACT       0.0115
     13 CE2       -17.5952   13.1605    5.6528 C.ar        1 ACT       0.0115
     14 CZ        -16.3587   13.4687    6.2606 C.ar        1 ACT       0.1728
     15 OH        -16.3437   13.8539    7.5745 O.3         1 ACT      -0.2040
     16 P         -15.9423   15.3413    7.8339 P.3         1 ACT       0.1348
     17 O1P       -16.1464   16.2612    6.7399 O.co2       1 ACT      -0.6653
     18 O2P       -16.7304   15.8246    8.9453 O.co2       1 ACT      -0.6653
     19 O3P       -14.5670   15.4154    8.2658 O.co2       1 ACT      -0.6653
     20 CB        -11.8551   13.0777   -0.2982 C.3         1 ACT      -0.0184
     21 CG        -12.1031   14.5694   -0.0811 C.3         1 ACT      -0.0184
     22 CA        -12.5516   13.5574    0.9931 C.3         1 ACT       0.1329
     23 C         -11.7632   13.4272    2.2057 C.2         1 ACT       0.2267
     24 O         -11.3683   14.4413    2.7617 O.2         1 ACT      -0.3419
     25 N         -13.9411   13.2005    1.0372 N.am        1 ACT      -0.2738
     26 N         -11.4926   12.2124    2.6699 N.am        1 ACT      -0.2608
     27 CA        -10.6211   11.8145    3.7479 C.3         1 ACT       0.1474
     28 C         -11.2001   11.9140    5.0831 C.2         1 ACT       0.2017
     29 O         -12.0690   12.7348    5.3449 O.2         1 ACT      -0.3945
     30 CB         -9.1569   12.3726    3.6364 C.3         1 ACT       0.0774
     31 CG         -8.8330   13.5336    4.4526 C.2         1 ACT       0.1781
     32 OD1        -8.9714   14.6629    4.0094 O.2         1 ACT      -0.3970
     33 ND2        -8.3468   13.4028    5.6689 N.am        1 ACT      -0.3007
     34 N         -10.7725   11.1464    6.0602 N.am        1 ACT      -0.2988
     35 H1        -17.9567   13.7539   -2.4637 H           1 ACT       0.0467
     36 H2        -18.9614   12.3415   -2.1255 H           1 ACT       0.0467
     37 H3        -17.4294   12.1516   -2.9862 H           1 ACT       0.0467
     38 H4        -16.8973   14.3662   -0.6727 H           1 ACT       0.1885
     39 H5        -16.9493   14.3903    1.5594 H           1 ACT       0.0840
     40 H6        -15.8149   11.5724    1.8482 H           1 ACT       0.0584
     41 H7        -17.5368   11.9412    1.8531 H           1 ACT       0.0584
     42 H8        -14.3561   12.8608    3.6276 H           1 ACT       0.0703
     43 H9        -18.5665   12.5869    3.8926 H           1 ACT       0.0703
     44 H10       -14.2673   13.5126    5.9341 H           1 ACT       0.0736
     45 H11       -18.4572   13.2311    6.1959 H           1 ACT       0.0736
     46 H12       -10.8058   12.7846   -0.2364 H           1 ACT       0.0276
     47 H13       -12.4805   12.6102   -1.0633 H           1 ACT       0.0276
     48 H14       -12.8788   14.9993   -0.7204 H           1 ACT       0.0276
     49 H15       -11.2020   15.1501    0.1230 H           1 ACT       0.0276
     50 H16       -14.1517   12.2521    1.0967 H           1 ACT       0.1839
     51 H17       -11.9102   11.4895    2.1766 H           1 ACT       0.1891
     52 H18       -10.5207   10.7395    3.5672 H           1 ACT       0.0828
     53 H19        -8.9453   12.6059    2.5855 H           1 ACT       0.0551
     54 H20        -8.4533   11.5750    3.9025 H           1 ACT       0.0551
     55 H21        -8.1267   14.1911    6.1852 H           1 ACT       0.1814
     56 H22        -8.1887   12.5222    6.0463 H           1 ACT       0.1814
     57 H23       -11.1680   11.2190    6.9391 H           1 ACT       0.1815
     58 H24       -10.0690   10.4960    5.9042 H           1 ACT       0.1815
@<TRIPOS>BOND
     1     1     2   2
     2     1     3   1
     3     4     1  am
     4     5     4   1
     5     6     5   1
     6     5     8   1
     7     6     7   2
     8    25     6  am
     9     8     9   1
    10     9    10  ar
    11     9    11  ar
    12    10    12  ar
    13    11    13  ar
    14    12    14  ar
    15    13    14  ar
    16    14    15   1
    17    15    16   1
    18    16    17  ar
    19    16    18  ar
    20    16    19  ar
    21    21    20   1
    22    22    20   1
    23    22    21   1
    24    22    23   1
    25    22    25   1
    26    23    24   2
    27    23    26  am
    28    26    27   1
    29    27    28   1
    30    27    30   1
    31    28    29   2
    32    28    34  am
    33    30    31   1
    34    31    32   2
    35    31    33  am
    36     3    35   1
    37     3    36   1
    38     3    37   1
    39     4    38   1
    40     5    39   1
    41     8    40   1
    42     8    41   1
    43    10    42   1
    44    11    43   1
    45    12    44   1
    46    13    45   1
    47    20    46   1
    48    20    47   1
    49    21    48   1
    50    21    49   1
    51    25    50   1
    52    26    51   1
    53    27    52   1
    54    30    53   1
    55    30    54   1
    56    33    55   1
    57    33    56   1
    58    34    57   1
    59    34    58   1
@<TRIPOS>SUBSTRUCTURE
     1  ACT      1

