@<TRIPOS>MOLECULE
3ov1_ligand_073
    58    59
SMALL
GAST_HUCK
****
This file was generated by PARSER (from files_GN.cpp)

@<TRIPOS>ATOM
      1 C         -16.6843   12.2131   -1.7340 C.2         1 ACT       0.1753
      2 O         -16.8264   11.3234   -0.9034 O.2         1 ACT      -0.3972
      3 CH3       -17.7832   12.4845   -2.6304 C.3         1 ACT       0.0258
      4 N         -15.5627   12.9095   -1.8373 N.am        1 ACT      -0.2628
      5 CA        -14.3866   12.7880   -1.0150 C.3         1 ACT       0.1465
      6 C         -14.4011   13.7612    0.0720 C.2         1 ACT       0.2045
      7 O         -14.8515   14.8871   -0.1111 O.2         1 ACT      -0.3944
      8 CB        -13.0859   12.8396   -1.8777 C.3         1 ACT       0.0400
      9 CG        -12.9867   13.9858   -2.8278 C.ar        1 ACT      -0.0004
     10 CD1       -12.7295   15.2945   -2.3617 C.ar        1 ACT      -0.0239
     11 CD2       -13.1813   13.7914   -4.2170 C.ar        1 ACT      -0.0239
     12 CE1       -12.7024   16.3831   -3.2525 C.ar        1 ACT       0.0115
     13 CE2       -13.1485   14.8776   -5.1088 C.ar        1 ACT       0.0115
     14 CZ        -12.9508   16.1886   -4.6284 C.ar        1 ACT       0.1728
     15 OH        -12.9136   17.2509   -5.4952 O.3         1 ACT      -0.2040
     16 P         -14.3036   17.9197   -5.7255 P.3         1 ACT       0.1348
     17 O1P       -14.8737   18.4513   -4.5150 O.co2       1 ACT      -0.6653
     18 O2P       -14.1059   19.0348   -6.6182 O.co2       1 ACT      -0.6653
     19 O3P       -15.2466   17.0391   -6.3612 O.co2       1 ACT      -0.6653
     20 CB        -12.5482   14.7446    2.7214 C.3         1 ACT      -0.0184
     21 CG        -13.7436   15.6801    2.5600 C.3         1 ACT      -0.0184
     22 CA        -13.9607   14.1513    2.4723 C.3         1 ACT       0.1329
     23 C         -14.5304   13.4535    3.6093 C.2         1 ACT       0.2267
     24 O         -13.8431   12.6274    4.1983 O.2         1 ACT      -0.3419
     25 N         -13.9423   13.3934    1.2619 N.am        1 ACT      -0.2738
     26 N         -15.8270   13.5909    3.8744 N.am        1 ACT      -0.2608
     27 CA        -16.6098   12.7772    4.7696 C.3         1 ACT       0.1474
     28 C         -18.0223   13.0872    4.5556 C.2         1 ACT       0.2017
     29 O         -18.6553   13.8424    5.2832 O.2         1 ACT      -0.3945
     30 CB        -16.1235   12.8222    6.2556 C.3         1 ACT       0.0774
     31 CG        -16.4890   14.0070    7.0209 C.2         1 ACT       0.1781
     32 OD1       -17.3167   13.9223    7.9188 O.2         1 ACT      -0.3970
     33 ND2       -15.9172   15.1765    6.8269 N.am        1 ACT      -0.3007
     34 N         -18.6486   12.5994    3.5028 N.am        1 ACT      -0.2988
     35 H1        -17.5399   13.2775   -3.3430 H           1 ACT       0.0467
     36 H2        -18.6632   12.7941   -2.0598 H           1 ACT       0.0467
     37 H3        -18.0245   11.5792   -3.1941 H           1 ACT       0.0467
     38 H4        -15.5635   13.6168   -2.5007 H           1 ACT       0.1885
     39 H5        -14.4010   11.7866   -0.5638 H           1 ACT       0.0840
     40 H6        -13.0344   11.9027   -2.4422 H           1 ACT       0.0584
     41 H7        -12.2070   12.8418   -1.2268 H           1 ACT       0.0584
     42 H8        -12.5644   15.4642   -1.3671 H           1 ACT       0.0703
     43 H9        -13.3623   12.8563   -4.5919 H           1 ACT       0.0703
     44 H10       -12.5181   17.3250   -2.8971 H           1 ACT       0.0736
     45 H11       -13.2973   14.7186   -6.1094 H           1 ACT       0.0736
     46 H12       -12.1345   14.7277    3.7353 H           1 ACT       0.0276
     47 H13       -11.8529   14.8073    1.8769 H           1 ACT       0.0276
     48 H14       -13.7561   16.2473    1.6284 H           1 ACT       0.0276
     49 H15       -14.0326   16.1808    3.4847 H           1 ACT       0.0276
     50 H16       -13.6224   12.4773    1.3346 H           1 ACT       0.1839
     51 H17       -16.3217   14.2275    3.3283 H           1 ACT       0.1891
     52 H18       -16.4839   11.7335    4.4566 H           1 ACT       0.0828
     53 H19       -15.0343   12.7259    6.2809 H           1 ACT       0.0551
     54 H20       -16.5241   11.9312    6.7536 H           1 ACT       0.0551
     55 H21       -16.1762   15.9326    7.3827 H           1 ACT       0.1814
     56 H22       -15.2391   15.2846    6.1361 H           1 ACT       0.1814
     57 H23       -19.5809   12.8302    3.3421 H           1 ACT       0.1815
     58 H24       -18.1776   12.0046    2.8867 H           1 ACT       0.1815
@<TRIPOS>BOND
     1     1     2   2
     2     1     3   1
     3     4     1  am
     4     5     4   1
     5     6     5   1
     6     5     8   1
     7     6     7   2
     8    25     6  am
     9     8     9   1
    10     9    10  ar
    11     9    11  ar
    12    10    12  ar
    13    11    13  ar
    14    12    14  ar
    15    13    14  ar
    16    14    15   1
    17    15    16   1
    18    16    17  ar
    19    16    18  ar
    20    16    19  ar
    21    21    20   1
    22    22    20   1
    23    22    21   1
    24    22    23   1
    25    22    25   1
    26    23    24   2
    27    23    26  am
    28    26    27   1
    29    27    28   1
    30    27    30   1
    31    28    29   2
    32    28    34  am
    33    30    31   1
    34    31    32   2
    35    31    33  am
    36     3    35   1
    37     3    36   1
    38     3    37   1
    39     4    38   1
    40     5    39   1
    41     8    40   1
    42     8    41   1
    43    10    42   1
    44    11    43   1
    45    12    44   1
    46    13    45   1
    47    20    46   1
    48    20    47   1
    49    21    48   1
    50    21    49   1
    51    25    50   1
    52    26    51   1
    53    27    52   1
    54    30    53   1
    55    30    54   1
    56    33    55   1
    57    33    56   1
    58    34    57   1
    59    34    58   1
@<TRIPOS>SUBSTRUCTURE
     1  ACT      1

