@<TRIPOS>MOLECULE
3ov1_ligand_005
    58    59
SMALL
GAST_HUCK
****
This file was generated by PARSER (from files_GN.cpp)

@<TRIPOS>ATOM
      1 C         -11.4045    8.3656   -2.4934 C.2         1 ACT       0.1753
      2 O         -12.4026    8.6128   -3.1600 O.2         1 ACT      -0.3972
      3 CH3       -11.5488    7.5346   -1.3220 C.3         1 ACT       0.0258
      4 N         -10.2140    8.8481   -2.8244 N.am        1 ACT      -0.2628
      5 CA         -9.8961    9.7228   -3.9271 C.3         1 ACT       0.1465
      6 C         -10.3386    9.2637   -5.2528 C.2         1 ACT       0.2045
      7 O         -10.7868    8.1312   -5.4189 O.2         1 ACT      -0.3944
      8 CB         -8.3526   10.0487   -3.8994 C.3         1 ACT       0.0400
      9 CG         -7.9076   11.4117   -3.4671 C.ar        1 ACT      -0.0004
     10 CD1        -6.5713   11.8105   -3.7479 C.ar        1 ACT      -0.0239
     11 CD2        -8.7133   12.3051   -2.7179 C.ar        1 ACT      -0.0239
     12 CE1        -6.0827   13.0618   -3.3450 C.ar        1 ACT       0.0115
     13 CE2        -8.2359   13.5795   -2.3498 C.ar        1 ACT       0.0115
     14 CZ         -6.9266   13.9784   -2.6767 C.ar        1 ACT       0.1728
     15 OH         -6.4520   15.1720   -2.2013 O.3         1 ACT      -0.2040
     16 P          -6.4487   16.3342   -3.2439 P.3         1 ACT       0.1348
     17 O1P        -6.0191   17.5236   -2.5496 O.co2       1 ACT      -0.6653
     18 O2P        -5.5036   16.1146   -4.3106 O.co2       1 ACT      -0.6653
     19 O3P        -7.7564   16.6149   -3.7910 O.co2       1 ACT      -0.6653
     20 CB        -12.0726   10.8691   -7.7979 C.3         1 ACT      -0.0184
     21 CG        -10.7335   11.3201   -8.3861 C.3         1 ACT      -0.0184
     22 CA        -10.8088   10.0029   -7.5786 C.3         1 ACT       0.1329
     23 C         -10.5343    8.8198   -8.3791 C.2         1 ACT       0.2267
     24 O          -9.4588    8.2380   -8.2145 O.2         1 ACT      -0.3419
     25 N         -10.2680   10.1316   -6.2516 N.am        1 ACT      -0.2738
     26 N         -11.4844    8.2100   -9.0765 N.am        1 ACT      -0.2608
     27 CA        -11.3819    6.9405   -9.7560 C.3         1 ACT       0.1474
     28 C         -10.6613    5.9182   -8.9984 C.2         1 ACT       0.2017
     29 O         -10.1823    6.1419   -7.8853 O.2         1 ACT      -0.3945
     30 CB        -10.8487    7.1301  -11.2233 C.3         1 ACT       0.0774
     31 CG        -11.9102    7.1186  -12.2146 C.2         1 ACT       0.1781
     32 OD1       -12.4783    8.1570  -12.5217 O.2         1 ACT      -0.3970
     33 ND2       -12.3596    5.9914  -12.7197 N.am        1 ACT      -0.3007
     34 N         -10.5374    4.6868   -9.4660 N.am        1 ACT      -0.2988
     35 H1        -10.6014    7.4093   -0.7960 H           1 ACT       0.0467
     36 H2        -11.9262    6.5486   -1.5991 H           1 ACT       0.0467
     37 H3        -12.2551    7.9968   -0.6301 H           1 ACT       0.0467
     38 H4         -9.4889    8.6217   -2.2202 H           1 ACT       0.1885
     39 H5        -10.4612   10.6414   -3.7538 H           1 ACT       0.0840
     40 H6         -7.9379    9.8735   -4.9016 H           1 ACT       0.0584
     41 H7         -7.8309    9.3350   -3.2545 H           1 ACT       0.0584
     42 H8         -5.9390   11.1743   -4.2345 H           1 ACT       0.0703
     43 H9         -9.6436   12.0349   -2.4064 H           1 ACT       0.0703
     44 H10        -5.1089   13.3072   -3.5285 H           1 ACT       0.0736
     45 H11        -8.8380   14.2095   -1.8144 H           1 ACT       0.0736
     46 H12       -12.8053   10.5639   -8.5472 H           1 ACT       0.0276
     47 H13       -12.4114   11.4937   -6.9634 H           1 ACT       0.0276
     48 H14       -10.2847   12.1855   -7.8937 H           1 ACT       0.0276
     49 H15       -10.6670   11.2541   -9.4752 H           1 ACT       0.0276
     50 H16        -9.8954   11.0041   -6.0327 H           1 ACT       0.1839
     51 H17       -12.3536    8.6409   -9.1037 H           1 ACT       0.1891
     52 H18       -12.4103    6.5680   -9.8164 H           1 ACT       0.0828
     53 H19       -10.1329    6.3499  -11.4829 H           1 ACT       0.0551
     54 H20       -10.2988    8.0690  -11.3194 H           1 ACT       0.0551
     55 H21       -13.0906    5.9964  -13.3570 H           1 ACT       0.1814
     56 H22       -11.9586    5.1445  -12.4588 H           1 ACT       0.1814
     57 H23       -10.0930    4.0119   -8.9221 H           1 ACT       0.1815
     58 H24       -10.8692    4.4763  -10.3435 H           1 ACT       0.1815
@<TRIPOS>BOND
     1     1     2   2
     2     1     3   1
     3     4     1  am
     4     5     4   1
     5     6     5   1
     6     5     8   1
     7     6     7   2
     8    25     6  am
     9     8     9   1
    10     9    10  ar
    11     9    11  ar
    12    10    12  ar
    13    11    13  ar
    14    12    14  ar
    15    13    14  ar
    16    14    15   1
    17    15    16   1
    18    16    17  ar
    19    16    18  ar
    20    16    19  ar
    21    21    20   1
    22    22    20   1
    23    22    21   1
    24    22    23   1
    25    22    25   1
    26    23    24   2
    27    23    26  am
    28    26    27   1
    29    27    28   1
    30    27    30   1
    31    28    29   2
    32    28    34  am
    33    30    31   1
    34    31    32   2
    35    31    33  am
    36     3    35   1
    37     3    36   1
    38     3    37   1
    39     4    38   1
    40     5    39   1
    41     8    40   1
    42     8    41   1
    43    10    42   1
    44    11    43   1
    45    12    44   1
    46    13    45   1
    47    20    46   1
    48    20    47   1
    49    21    48   1
    50    21    49   1
    51    25    50   1
    52    26    51   1
    53    27    52   1
    54    30    53   1
    55    30    54   1
    56    33    55   1
    57    33    56   1
    58    34    57   1
    59    34    58   1
@<TRIPOS>SUBSTRUCTURE
     1  ACT      1

