@<TRIPOS>MOLECULE
3ov1_ligand_050
    58    59
SMALL
GAST_HUCK
****
This file was generated by PARSER (from files_GN.cpp)

@<TRIPOS>ATOM
      1 C         -17.0001   11.9980   -1.7898 C.2         1 ACT       0.1753
      2 O         -17.3304   11.1047   -1.0085 O.2         1 ACT      -0.3972
      3 CH3       -17.9321   12.3683   -2.8335 C.3         1 ACT       0.0258
      4 N         -15.8400   12.6434   -1.6690 N.am        1 ACT      -0.2628
      5 CA        -14.7822   12.4067   -0.7075 C.3         1 ACT       0.1465
      6 C         -14.6858   13.5308    0.2217 C.2         1 ACT       0.2045
      7 O         -15.1932   14.6229   -0.0491 O.2         1 ACT      -0.3944
      8 CB        -13.4702   12.0198   -1.4995 C.3         1 ACT       0.0400
      9 CG        -12.2359   12.7978   -1.2093 C.ar        1 ACT      -0.0004
     10 CD1       -11.3893   12.4603   -0.1258 C.ar        1 ACT      -0.0239
     11 CD2       -11.8807   13.8997   -2.0280 C.ar        1 ACT      -0.0239
     12 CE1       -10.2233   13.2039    0.1294 C.ar        1 ACT       0.0115
     13 CE2       -10.7186   14.6437   -1.7692 C.ar        1 ACT       0.0115
     14 CZ         -9.9019   14.3282   -0.6636 C.ar        1 ACT       0.1728
     15 OH         -8.7546   15.0441   -0.4382 O.3         1 ACT      -0.2040
     16 P          -8.9697   16.2843    0.4809 P.3         1 ACT       0.1348
     17 O1P        -9.2103   15.9030    1.8524 O.co2       1 ACT      -0.6653
     18 O2P        -7.7444   17.0430    0.4807 O.co2       1 ACT      -0.6653
     19 O3P       -10.0147   17.1679    0.0246 O.co2       1 ACT      -0.6653
     20 CB        -12.6294   14.9188    2.6134 C.3         1 ACT      -0.0184
     21 CG        -13.8655   15.7802    2.3645 C.3         1 ACT      -0.0184
     22 CA        -14.0107   14.2508    2.4959 C.3         1 ACT       0.1329
     23 C         -14.5777   13.7031    3.7119 C.2         1 ACT       0.2267
     24 O         -13.8361   13.1740    4.5581 O.2         1 ACT      -0.3419
     25 N         -14.0660   13.3446    1.3877 N.am        1 ACT      -0.2738
     26 N         -15.8956   13.6682    3.8576 N.am        1 ACT      -0.2608
     27 CA        -16.6434   12.8108    4.7421 C.3         1 ACT       0.1474
     28 C         -18.0583   13.1000    4.5322 C.2         1 ACT       0.2017
     29 O         -18.6626   13.9018    5.2330 O.2         1 ACT      -0.3945
     30 CB        -16.2288   12.7903    6.2578 C.3         1 ACT       0.0774
     31 CG        -16.5383   13.9838    7.0323 C.2         1 ACT       0.1781
     32 OD1       -17.3171   13.9138    7.9737 O.2         1 ACT      -0.3970
     33 ND2       -15.9403   15.1414    6.8165 N.am        1 ACT      -0.3007
     34 N         -18.7192   12.6007    3.5026 N.am        1 ACT      -0.2988
     35 H1        -17.5245   13.1604   -3.4802 H           1 ACT       0.0467
     36 H2        -18.8664   12.7301   -2.3827 H           1 ACT       0.0467
     37 H3        -18.1529   11.4910   -3.4571 H           1 ACT       0.0467
     38 H4        -15.6826   13.3726   -2.3088 H           1 ACT       0.1885
     39 H5        -15.0578   11.5348   -0.0996 H           1 ACT       0.0840
     40 H6        -13.6551   12.0889   -2.5814 H           1 ACT       0.0584
     41 H7        -13.2632   10.9583   -1.3168 H           1 ACT       0.0584
     42 H8        -11.6159   11.6650    0.4742 H           1 ACT       0.0703
     43 H9        -12.4682   14.1646   -2.8220 H           1 ACT       0.0703
     44 H10        -9.6222   12.9493    0.9205 H           1 ACT       0.0736
     45 H11       -10.4794   15.4318   -2.3701 H           1 ACT       0.0736
     46 H12       -12.1867   15.0316    3.6130 H           1 ACT       0.0276
     47 H13       -11.9596   14.8260    1.7478 H           1 ACT       0.0276
     48 H14       -13.8786   16.2384    1.3644 H           1 ACT       0.0276
     49 H15       -14.1359   16.3976    3.2337 H           1 ACT       0.0276
     50 H16       -13.6948   12.4519    1.5426 H           1 ACT       0.1839
     51 H17       -16.4056   14.0877    3.1231 H           1 ACT       0.1891
     52 H18       -16.4729   11.7861    4.3888 H           1 ACT       0.0828
     53 H19       -15.1478   12.6179    6.3190 H           1 ACT       0.0551
     54 H20       -16.7461   11.9252    6.7052 H           1 ACT       0.0551
     55 H21       -16.1736   15.9064    7.3656 H           1 ACT       0.1814
     56 H22       -15.2692   15.2338    6.1189 H           1 ACT       0.1814
     57 H23       -19.6617   12.8286    3.3688 H           1 ACT       0.1815
     58 H24       -18.2713   11.9953    2.8854 H           1 ACT       0.1815
@<TRIPOS>BOND
     1     1     2   2
     2     1     3   1
     3     4     1  am
     4     5     4   1
     5     6     5   1
     6     5     8   1
     7     6     7   2
     8    25     6  am
     9     8     9   1
    10     9    10  ar
    11     9    11  ar
    12    10    12  ar
    13    11    13  ar
    14    12    14  ar
    15    13    14  ar
    16    14    15   1
    17    15    16   1
    18    16    17  ar
    19    16    18  ar
    20    16    19  ar
    21    21    20   1
    22    22    20   1
    23    22    21   1
    24    22    23   1
    25    22    25   1
    26    23    24   2
    27    23    26  am
    28    26    27   1
    29    27    28   1
    30    27    30   1
    31    28    29   2
    32    28    34  am
    33    30    31   1
    34    31    32   2
    35    31    33  am
    36     3    35   1
    37     3    36   1
    38     3    37   1
    39     4    38   1
    40     5    39   1
    41     8    40   1
    42     8    41   1
    43    10    42   1
    44    11    43   1
    45    12    44   1
    46    13    45   1
    47    20    46   1
    48    20    47   1
    49    21    48   1
    50    21    49   1
    51    25    50   1
    52    26    51   1
    53    27    52   1
    54    30    53   1
    55    30    54   1
    56    33    55   1
    57    33    56   1
    58    34    57   1
    59    34    58   1
@<TRIPOS>SUBSTRUCTURE
     1  ACT      1

