@<TRIPOS>MOLECULE
3ov1_ligand_003
    58    59
SMALL
GAST_HUCK
****
This file was generated by PARSER (from files_GN.cpp)

@<TRIPOS>ATOM
      1 C         -12.9217   11.7674   -1.1328 C.2         1 ACT       0.1753
      2 O         -12.4619   11.0348   -2.0027 O.2         1 ACT      -0.3972
      3 CH3       -14.3553   11.9340   -1.0605 C.3         1 ACT       0.0258
      4 N         -12.1438   12.4293   -0.2938 N.am        1 ACT      -0.2628
      5 CA        -10.7056   12.4214   -0.2330 C.3         1 ACT       0.1465
      6 C         -10.3045   12.9774    1.0547 C.2         1 ACT       0.2045
      7 O          -9.8701   12.2206    1.9155 O.2         1 ACT      -0.3944
      8 CB        -10.0590   13.2358   -1.4084 C.3         1 ACT       0.0400
      9 CG         -9.9958   12.4780   -2.6876 C.ar        1 ACT      -0.0004
     10 CD1       -11.0715   12.4891   -3.6055 C.ar        1 ACT      -0.0239
     11 CD2        -8.8514   11.7033   -2.9978 C.ar        1 ACT      -0.0239
     12 CE1       -11.0120   11.7318   -4.7895 C.ar        1 ACT       0.0115
     13 CE2        -8.7888   10.9587   -4.1892 C.ar        1 ACT       0.0115
     14 CZ         -9.8929   10.9229   -5.0663 C.ar        1 ACT       0.1728
     15 OH         -9.8489   10.1959   -6.2233 O.3         1 ACT      -0.2040
     16 P         -10.2293    8.6915   -6.0531 P.3         1 ACT       0.1348
     17 O1P       -11.6105    8.4943   -5.6870 O.co2       1 ACT      -0.6653
     18 O2P       -10.0194    8.0264   -7.3168 O.co2       1 ACT      -0.6653
     19 O3P        -9.4233    8.0036   -5.0814 O.co2       1 ACT      -0.6653
     20 CB         -8.7266   16.0286    2.0355 C.3         1 ACT      -0.0184
     21 CG        -10.1440   16.5188    2.3438 C.3         1 ACT      -0.0184
     22 CA         -9.8304   15.0076    2.3877 C.3         1 ACT       0.1329
     23 C          -9.7566   14.4060    3.7024 C.2         1 ACT       0.2267
     24 O         -10.6221   14.6660    4.5347 O.2         1 ACT      -0.3419
     25 N         -10.3517   14.2911    1.2600 N.am        1 ACT      -0.2738
     26 N          -8.7725   13.5571    3.9526 N.am        1 ACT      -0.2608
     27 CA         -8.4881   12.8261    5.1643 C.3         1 ACT       0.1474
     28 C          -9.5021   11.8063    5.4158 C.2         1 ACT       0.2017
     29 O         -10.5016   12.0689    6.0784 O.2         1 ACT      -0.3945
     30 CB         -8.2197   13.7683    6.3790 C.3         1 ACT       0.0774
     31 CG         -6.8246   14.1536    6.5357 C.2         1 ACT       0.1781
     32 OD1        -6.2587   14.8156    5.6770 O.2         1 ACT      -0.3970
     33 ND2        -6.1341   13.8758    7.6211 N.am        1 ACT      -0.3007
     34 N          -9.4021   10.5824    4.9429 N.am        1 ACT      -0.2988
     35 H1        -14.6577   12.5493   -0.2023 H           1 ACT       0.0467
     36 H2        -14.8401   10.9618   -0.9674 H           1 ACT       0.0467
     37 H3        -14.7064   12.4232   -1.9690 H           1 ACT       0.0467
     38 H4        -12.5947   12.9992    0.3506 H           1 ACT       0.1885
     39 H5        -10.3555   11.3814   -0.2819 H           1 ACT       0.0840
     40 H6         -9.0399   13.5341   -1.1372 H           1 ACT       0.0584
     41 H7        -10.6109   14.1690   -1.5555 H           1 ACT       0.0584
     42 H8        -11.9039   13.0587   -3.4194 H           1 ACT       0.0703
     43 H9         -8.0499   11.6865   -2.3628 H           1 ACT       0.0703
     44 H10       -11.7963   11.7523   -5.4407 H           1 ACT       0.0736
     45 H11        -7.9488   10.4094   -4.3963 H           1 ACT       0.0736
     46 H12        -7.9889   16.2701    2.8010 H           1 ACT       0.0276
     47 H13        -8.4316   16.0966    0.9851 H           1 ACT       0.0276
     48 H14       -10.6656   16.9138    1.4699 H           1 ACT       0.0276
     49 H15       -10.2288   17.0556    3.2880 H           1 ACT       0.0276
     50 H16       -10.7051   14.8300    0.5293 H           1 ACT       0.1839
     51 H17        -8.1473   13.3964    3.2255 H           1 ACT       0.1891
     52 H18        -7.5474   12.2941    4.9692 H           1 ACT       0.0828
     53 H19        -8.5580   13.2739    7.2958 H           1 ACT       0.0551
     54 H20        -8.8105   14.6790    6.2574 H           1 ACT       0.0551
     55 H21        -5.2123   14.1729    7.6960 H           1 ACT       0.1814
     56 H22        -6.5422   13.3906    8.3582 H           1 ACT       0.1814
     57 H23       -10.0964    9.9333    5.1409 H           1 ACT       0.1815
     58 H24        -8.6374   10.3086    4.4007 H           1 ACT       0.1815
@<TRIPOS>BOND
     1     1     2   2
     2     1     3   1
     3     4     1  am
     4     5     4   1
     5     6     5   1
     6     5     8   1
     7     6     7   2
     8    25     6  am
     9     8     9   1
    10     9    10  ar
    11     9    11  ar
    12    10    12  ar
    13    11    13  ar
    14    12    14  ar
    15    13    14  ar
    16    14    15   1
    17    15    16   1
    18    16    17  ar
    19    16    18  ar
    20    16    19  ar
    21    21    20   1
    22    22    20   1
    23    22    21   1
    24    22    23   1
    25    22    25   1
    26    23    24   2
    27    23    26  am
    28    26    27   1
    29    27    28   1
    30    27    30   1
    31    28    29   2
    32    28    34  am
    33    30    31   1
    34    31    32   2
    35    31    33  am
    36     3    35   1
    37     3    36   1
    38     3    37   1
    39     4    38   1
    40     5    39   1
    41     8    40   1
    42     8    41   1
    43    10    42   1
    44    11    43   1
    45    12    44   1
    46    13    45   1
    47    20    46   1
    48    20    47   1
    49    21    48   1
    50    21    49   1
    51    25    50   1
    52    26    51   1
    53    27    52   1
    54    30    53   1
    55    30    54   1
    56    33    55   1
    57    33    56   1
    58    34    57   1
    59    34    58   1
@<TRIPOS>SUBSTRUCTURE
     1  ACT      1

