@<TRIPOS>MOLECULE
3ov1_ligand_080
    58    59
SMALL
GAST_HUCK
****
This file was generated by PARSER (from files_GN.cpp)

@<TRIPOS>ATOM
      1 C         -12.4049   13.8401   -2.4930 C.2         1 ACT       0.1753
      2 O         -11.7683   12.9187   -2.0007 O.2         1 ACT      -0.3972
      3 CH3       -12.1416   14.1843   -3.8743 C.3         1 ACT       0.0258
      4 N         -13.3486   14.4891   -1.8155 N.am        1 ACT      -0.2628
      5 CA        -13.7684   14.3293   -0.4447 C.3         1 ACT       0.1465
      6 C         -12.8549   15.0226    0.4682 C.2         1 ACT       0.2045
      7 O         -13.2970   15.9265    1.1632 O.2         1 ACT      -0.3944
      8 CB        -14.0993   12.8550   -0.0309 C.3         1 ACT       0.0400
      9 CG        -14.6610   12.7260    1.3492 C.ar        1 ACT      -0.0004
     10 CD1       -13.7928   12.7453    2.4696 C.ar        1 ACT      -0.0239
     11 CD2       -16.0455   12.5436    1.5751 C.ar        1 ACT      -0.0239
     12 CE1       -14.3007   12.6464    3.7766 C.ar        1 ACT       0.0115
     13 CE2       -16.5544   12.4391    2.8881 C.ar        1 ACT       0.0115
     14 CZ        -15.6867   12.5300    3.9959 C.ar        1 ACT       0.1728
     15 OH        -16.1817   12.3740    5.2649 O.3         1 ACT      -0.2040
     16 P         -16.2907   13.7101    6.0734 P.3         1 ACT       0.1348
     17 O1P       -17.2476   14.6308    5.5086 O.co2       1 ACT      -0.6653
     18 O2P       -16.7577   13.3584    7.3897 O.co2       1 ACT      -0.6653
     19 O3P       -15.0157   14.3595    6.2540 O.co2       1 ACT      -0.6653
     20 CB         -9.4143   15.7890    0.8214 C.3         1 ACT      -0.0184
     21 CG        -10.3795   16.7089    1.5703 C.3         1 ACT      -0.0184
     22 CA        -10.6422   15.1887    1.5297 C.3         1 ACT       0.1329
     23 C         -10.3271   14.3927    2.7017 C.2         1 ACT       0.2267
     24 O         -10.8076   14.7272    3.7759 O.2         1 ACT      -0.3419
     25 N         -11.5849   14.6551    0.5944 N.am        1 ACT      -0.2738
     26 N          -9.5406   13.3360    2.5663 N.am        1 ACT      -0.2608
     27 CA         -8.9760   12.4542    3.5574 C.3         1 ACT       0.1474
     28 C          -9.9241   11.6877    4.3531 C.2         1 ACT       0.2017
     29 O         -10.9512   12.1831    4.7876 O.2         1 ACT      -0.3945
     30 CB         -7.8366   13.0861    4.4176 C.3         1 ACT       0.0774
     31 CG         -8.2010   14.1637    5.3214 C.2         1 ACT       0.1781
     32 OD1        -8.3492   15.3021    4.8938 O.2         1 ACT      -0.3970
     33 ND2        -8.2798   13.9836    6.6204 N.am        1 ACT      -0.3007
     34 N          -9.6511   10.4561    4.7263 N.am        1 ACT      -0.2988
     35 H1        -12.7044   15.0654   -4.1840 H           1 ACT       0.0467
     36 H2        -12.4210   13.3498   -4.5213 H           1 ACT       0.0467
     37 H3        -11.0826   14.3917   -4.0009 H           1 ACT       0.0467
     38 H4        -13.8190   15.1796   -2.3146 H           1 ACT       0.1885
     39 H5        -14.7284   14.8577   -0.4113 H           1 ACT       0.0840
     40 H6        -13.2029   12.2311   -0.1056 H           1 ACT       0.0584
     41 H7        -14.8129   12.4570   -0.7578 H           1 ACT       0.0584
     42 H8        -12.7810   12.8255    2.3378 H           1 ACT       0.0703
     43 H9        -16.6957   12.4859    0.7883 H           1 ACT       0.0703
     44 H10       -13.6582   12.6663    4.5687 H           1 ACT       0.0736
     45 H11       -17.5572   12.2992    3.0353 H           1 ACT       0.0736
     46 H12        -8.4404   15.7018    1.3016 H           1 ACT       0.0276
     47 H13        -9.4514   15.9187   -0.2599 H           1 ACT       0.0276
     48 H14       -11.0036   17.3416    0.9381 H           1 ACT       0.0276
     49 H15        -9.9828   17.1236    2.5040 H           1 ACT       0.0276
     50 H16       -11.2799   13.9266    0.0340 H           1 ACT       0.1839
     51 H17        -9.2785   13.1361    1.6507 H           1 ACT       0.1891
     52 H18        -8.4478   11.7224    2.9379 H           1 ACT       0.0828
     53 H19        -7.0508   13.4558    3.7493 H           1 ACT       0.0551
     54 H20        -7.3636   12.2845    5.0065 H           1 ACT       0.0551
     55 H21        -8.4585   14.7356    7.2045 H           1 ACT       0.1814
     56 H22        -8.1367   13.1025    7.0052 H           1 ACT       0.1814
     57 H23       -10.2644    9.9710    5.2982 H           1 ACT       0.1815
     58 H24        -8.8272   10.0319    4.4436 H           1 ACT       0.1815
@<TRIPOS>BOND
     1     1     2   2
     2     1     3   1
     3     4     1  am
     4     5     4   1
     5     6     5   1
     6     5     8   1
     7     6     7   2
     8    25     6  am
     9     8     9   1
    10     9    10  ar
    11     9    11  ar
    12    10    12  ar
    13    11    13  ar
    14    12    14  ar
    15    13    14  ar
    16    14    15   1
    17    15    16   1
    18    16    17  ar
    19    16    18  ar
    20    16    19  ar
    21    21    20   1
    22    22    20   1
    23    22    21   1
    24    22    23   1
    25    22    25   1
    26    23    24   2
    27    23    26  am
    28    26    27   1
    29    27    28   1
    30    27    30   1
    31    28    29   2
    32    28    34  am
    33    30    31   1
    34    31    32   2
    35    31    33  am
    36     3    35   1
    37     3    36   1
    38     3    37   1
    39     4    38   1
    40     5    39   1
    41     8    40   1
    42     8    41   1
    43    10    42   1
    44    11    43   1
    45    12    44   1
    46    13    45   1
    47    20    46   1
    48    20    47   1
    49    21    48   1
    50    21    49   1
    51    25    50   1
    52    26    51   1
    53    27    52   1
    54    30    53   1
    55    30    54   1
    56    33    55   1
    57    33    56   1
    58    34    57   1
    59    34    58   1
@<TRIPOS>SUBSTRUCTURE
     1  ACT      1

