@<TRIPOS>MOLECULE
3ov1_ligand_008
    58    59
SMALL
GAST_HUCK
****
This file was generated by PARSER (from files_GN.cpp)

@<TRIPOS>ATOM
      1 C         -14.4762   12.0258   -1.3103 C.2         1 ACT       0.1753
      2 O         -13.9825   11.8411   -2.4262 O.2         1 ACT      -0.3972
      3 CH3       -15.9100   11.9936   -1.2003 C.3         1 ACT       0.0258
      4 N         -13.7372   12.3046   -0.2491 N.am        1 ACT      -0.2628
      5 CA        -12.3013   12.2694   -0.1350 C.3         1 ACT       0.1465
      6 C         -11.9288   12.6351    1.2317 C.2         1 ACT       0.2045
      7 O         -11.0830   11.9476    1.8091 O.2         1 ACT      -0.3944
      8 CB        -11.5450   13.1686   -1.1852 C.3         1 ACT       0.0400
      9 CG        -11.0971   12.4313   -2.3983 C.ar        1 ACT      -0.0004
     10 CD1       -11.5260   12.7979   -3.7011 C.ar        1 ACT      -0.0239
     11 CD2       -10.2108   11.3340   -2.2747 C.ar        1 ACT      -0.0239
     12 CE1       -11.1053   12.0698   -4.8337 C.ar        1 ACT       0.0115
     13 CE2        -9.7660   10.6230   -3.4132 C.ar        1 ACT       0.0115
     14 CZ        -10.2496   10.9572   -4.6971 C.ar        1 ACT       0.1728
     15 OH         -9.8162   10.3287   -5.8408 O.3         1 ACT      -0.2040
     16 P         -10.1751    8.8191   -5.9513 P.3         1 ACT       0.1348
     17 O1P       -11.5283    8.5001   -5.5713 O.co2       1 ACT      -0.6653
     18 O2P        -9.9762    8.3870   -7.3115 O.co2       1 ACT      -0.6653
     19 O3P        -9.2948    8.0255   -5.1321 O.co2       1 ACT      -0.6653
     20 CB        -12.0756   15.7881    3.1593 C.3         1 ACT      -0.0184
     21 CG        -13.3703   15.1321    3.6434 C.3         1 ACT      -0.0184
     22 CA        -12.2099   14.2479    3.1305 C.3         1 ACT       0.1329
     23 C         -11.4480   13.5360    4.1396 C.2         1 ACT       0.2267
     24 O         -12.0367   12.7292    4.8617 O.2         1 ACT      -0.3419
     25 N         -12.4144   13.7349    1.7995 N.am        1 ACT      -0.2738
     26 N         -10.1411   13.7506    4.2443 N.am        1 ACT      -0.2608
     27 CA         -9.2345   13.2008    5.2216 C.3         1 ACT       0.1474
     28 C          -8.0260   14.0127    5.3172 C.2         1 ACT       0.2017
     29 O          -7.7556   14.9086    4.5221 O.2         1 ACT      -0.3945
     30 CB         -8.8540   11.7085    4.9304 C.3         1 ACT       0.0774
     31 CG         -9.7324   10.7406    5.5593 C.2         1 ACT       0.1781
     32 OD1       -10.2116    9.8283    4.9047 O.2         1 ACT      -0.3970
     33 ND2       -10.0008   10.7841    6.8510 N.am        1 ACT      -0.3007
     34 N          -7.1507   13.7811    6.2706 N.am        1 ACT      -0.2988
     35 H1        -16.2371   12.0860   -0.1559 H           1 ACT       0.0467
     36 H2        -16.2774   11.0410   -1.5887 H           1 ACT       0.0467
     37 H3        -16.3513   12.8085   -1.7809 H           1 ACT       0.0467
     38 H4        -14.2277   12.4529    0.5802 H           1 ACT       0.1885
     39 H5        -12.0062   11.2213   -0.2959 H           1 ACT       0.0840
     40 H6        -10.6374   13.6049   -0.7526 H           1 ACT       0.0584
     41 H7        -12.1815   14.0161   -1.4556 H           1 ACT       0.0584
     42 H8        -12.1522   13.5942   -3.8388 H           1 ACT       0.0703
     43 H9         -9.8685   11.0609   -1.3533 H           1 ACT       0.0703
     44 H10       -11.4251   12.3524   -5.7685 H           1 ACT       0.0736
     45 H11        -9.1180    9.8421   -3.2915 H           1 ACT       0.0736
     46 H12       -11.4877   16.2419    3.9612 H           1 ACT       0.0276
     47 H13       -12.1764   16.3218    2.2094 H           1 ACT       0.0276
     48 H14       -14.2304   15.2701    2.9832 H           1 ACT       0.0276
     49 H15       -13.5308   15.1846    4.7231 H           1 ACT       0.0276
     50 H16       -13.0270   14.2498    1.2498 H           1 ACT       0.1839
     51 H17        -9.7573   14.3875    3.6117 H           1 ACT       0.1891
     52 H18        -9.7159   13.2780    6.2046 H           1 ACT       0.0828
     53 H19        -7.8430   11.4830    5.2868 H           1 ACT       0.0551
     54 H20        -8.8380   11.5631    3.8423 H           1 ACT       0.0551
     55 H21       -10.5799   10.1136    7.2430 H           1 ACT       0.1814
     56 H22        -9.6397   11.4896    7.4092 H           1 ACT       0.1814
     57 H23        -6.3462   14.3128    6.3336 H           1 ACT       0.1815
     58 H24        -7.3072   13.0539    6.8942 H           1 ACT       0.1815
@<TRIPOS>BOND
     1     1     2   2
     2     1     3   1
     3     4     1  am
     4     5     4   1
     5     6     5   1
     6     5     8   1
     7     6     7   2
     8    25     6  am
     9     8     9   1
    10     9    10  ar
    11     9    11  ar
    12    10    12  ar
    13    11    13  ar
    14    12    14  ar
    15    13    14  ar
    16    14    15   1
    17    15    16   1
    18    16    17  ar
    19    16    18  ar
    20    16    19  ar
    21    21    20   1
    22    22    20   1
    23    22    21   1
    24    22    23   1
    25    22    25   1
    26    23    24   2
    27    23    26  am
    28    26    27   1
    29    27    28   1
    30    27    30   1
    31    28    29   2
    32    28    34  am
    33    30    31   1
    34    31    32   2
    35    31    33  am
    36     3    35   1
    37     3    36   1
    38     3    37   1
    39     4    38   1
    40     5    39   1
    41     8    40   1
    42     8    41   1
    43    10    42   1
    44    11    43   1
    45    12    44   1
    46    13    45   1
    47    20    46   1
    48    20    47   1
    49    21    48   1
    50    21    49   1
    51    25    50   1
    52    26    51   1
    53    27    52   1
    54    30    53   1
    55    30    54   1
    56    33    55   1
    57    33    56   1
    58    34    57   1
    59    34    58   1
@<TRIPOS>SUBSTRUCTURE
     1  ACT      1

