@<TRIPOS>MOLECULE
3ov1_ligand_078
    58    59
SMALL
GAST_HUCK
****
This file was generated by PARSER (from files_GN.cpp)

@<TRIPOS>ATOM
      1 C         -11.4546   11.3028   -1.8077 C.2         1 ACT       0.1753
      2 O         -12.5739   11.1960   -2.2943 O.2         1 ACT      -0.3972
      3 CH3       -11.1949   10.6054   -0.5739 C.3         1 ACT       0.0258
      4 N         -10.5103   12.0421   -2.3837 N.am        1 ACT      -0.2628
      5 CA        -10.6814   12.8669   -3.5584 C.3         1 ACT       0.1465
      6 C         -11.0642   12.1143   -4.7583 C.2         1 ACT       0.2045
      7 O         -10.9739   10.8922   -4.7646 O.2         1 ACT      -0.3944
      8 CB         -9.4351   13.8035   -3.7806 C.3         1 ACT       0.0400
      9 CG         -8.4734   13.4421   -4.8671 C.ar        1 ACT      -0.0004
     10 CD1        -7.7328   12.2370   -4.8109 C.ar        1 ACT      -0.0239
     11 CD2        -8.3038   14.2812   -5.9952 C.ar        1 ACT      -0.0239
     12 CE1        -6.8459   11.8851   -5.8481 C.ar        1 ACT       0.0115
     13 CE2        -7.4150   13.9321   -7.0279 C.ar        1 ACT       0.0115
     14 CZ         -6.6599   12.7478   -6.9507 C.ar        1 ACT       0.1728
     15 OH         -5.8234   12.4302   -7.9863 O.3         1 ACT      -0.2040
     16 P          -4.3542   12.9001   -7.7721 P.3         1 ACT       0.1348
     17 O1P        -4.2005   14.2731   -7.3555 O.co2       1 ACT      -0.6653
     18 O2P        -3.6679   12.0279   -6.8602 O.co2       1 ACT      -0.6653
     19 O3P        -3.6878   12.7780   -9.0463 O.co2       1 ACT      -0.6653
     20 CB        -13.4620   12.2606   -7.2408 C.3         1 ACT      -0.0184
     21 CG        -12.5535   13.2239   -8.0118 C.3         1 ACT      -0.0184
     22 CA        -11.9328   12.1801   -7.0568 C.3         1 ACT       0.1329
     23 C         -11.0955   11.2088   -7.7578 C.2         1 ACT       0.2267
     24 O          -9.8888   11.2539   -7.5624 O.2         1 ACT      -0.3419
     25 N         -11.4760   12.7730   -5.8345 N.am        1 ACT      -0.2738
     26 N         -11.6102   10.3059   -8.5836 N.am        1 ACT      -0.2608
     27 CA        -10.9172    9.2442   -9.2585 C.3         1 ACT       0.1474
     28 C         -10.9599    9.5146  -10.6912 C.2         1 ACT       0.2017
     29 O          -9.9267    9.6993  -11.3173 O.2         1 ACT      -0.3945
     30 CB        -11.5748    7.8909   -8.8573 C.3         1 ACT       0.0774
     31 CG        -10.9090    6.7226   -9.4086 C.2         1 ACT       0.1781
     32 OD1       -10.0057    6.1679   -8.7967 O.2         1 ACT      -0.3970
     33 ND2       -11.2318    6.2498  -10.5923 N.am        1 ACT      -0.3007
     34 N         -12.0943    9.5869  -11.3524 N.am        1 ACT      -0.2988
     35 H1        -10.1748   10.7786   -0.2269 H           1 ACT       0.0467
     36 H2        -11.3401    9.5320   -0.7105 H           1 ACT       0.0467
     37 H3        -11.8851   10.9640    0.1908 H           1 ACT       0.0467
     38 H4         -9.6484   12.0744   -1.9372 H           1 ACT       0.1885
     39 H5        -11.5299   13.5210   -3.3161 H           1 ACT       0.0840
     40 H6         -8.8565   13.8860   -2.8547 H           1 ACT       0.0584
     41 H7         -9.8190   14.8107   -3.9686 H           1 ACT       0.0584
     42 H8         -7.8409   11.6033   -4.0141 H           1 ACT       0.0703
     43 H9         -8.8262   15.1557   -6.0781 H           1 ACT       0.0703
     44 H10        -6.3282   11.0022   -5.7974 H           1 ACT       0.0736
     45 H11        -7.3077   14.5528   -7.8361 H           1 ACT       0.0736
     46 H12       -13.9559   11.5072   -7.8522 H           1 ACT       0.0276
     47 H13       -14.0373   12.7282   -6.4386 H           1 ACT       0.0276
     48 H14       -12.6258   14.2596   -7.6745 H           1 ACT       0.0276
     49 H15       -12.5225   13.0312   -9.0863 H           1 ACT       0.0276
     50 H16       -11.5196   13.7402   -5.7624 H           1 ACT       0.1839
     51 H17       -12.5620   10.3599   -8.7581 H           1 ACT       0.1891
     52 H18        -9.8706    9.1960   -8.9365 H           1 ACT       0.0828
     53 H19       -12.6246    7.8916   -9.1658 H           1 ACT       0.0551
     54 H20       -11.5730    7.8057   -7.7640 H           1 ACT       0.0551
     55 H21       -10.7750    5.4716  -10.9481 H           1 ACT       0.1814
     56 H22       -11.9289    6.6781  -11.1159 H           1 ACT       0.1814
     57 H23       -12.0877    9.7762  -12.3032 H           1 ACT       0.1815
     58 H24       -12.9379    9.4487  -10.8949 H           1 ACT       0.1815
@<TRIPOS>BOND
     1     1     2   2
     2     1     3   1
     3     4     1  am
     4     5     4   1
     5     6     5   1
     6     5     8   1
     7     6     7   2
     8    25     6  am
     9     8     9   1
    10     9    10  ar
    11     9    11  ar
    12    10    12  ar
    13    11    13  ar
    14    12    14  ar
    15    13    14  ar
    16    14    15   1
    17    15    16   1
    18    16    17  ar
    19    16    18  ar
    20    16    19  ar
    21    21    20   1
    22    22    20   1
    23    22    21   1
    24    22    23   1
    25    22    25   1
    26    23    24   2
    27    23    26  am
    28    26    27   1
    29    27    28   1
    30    27    30   1
    31    28    29   2
    32    28    34  am
    33    30    31   1
    34    31    32   2
    35    31    33  am
    36     3    35   1
    37     3    36   1
    38     3    37   1
    39     4    38   1
    40     5    39   1
    41     8    40   1
    42     8    41   1
    43    10    42   1
    44    11    43   1
    45    12    44   1
    46    13    45   1
    47    20    46   1
    48    20    47   1
    49    21    48   1
    50    21    49   1
    51    25    50   1
    52    26    51   1
    53    27    52   1
    54    30    53   1
    55    30    54   1
    56    33    55   1
    57    33    56   1
    58    34    57   1
    59    34    58   1
@<TRIPOS>SUBSTRUCTURE
     1  ACT      1

