@<TRIPOS>MOLECULE
3ov1_ligand_036
    58    59
SMALL
GAST_HUCK
****
This file was generated by PARSER (from files_GN.cpp)

@<TRIPOS>ATOM
      1 C         -10.3936   10.2822   -1.1394 C.2         1 ACT       0.1753
      2 O          -9.4215   10.6374   -1.7922 O.2         1 ACT      -0.3972
      3 CH3       -10.8245    8.9024   -1.2588 C.3         1 ACT       0.0258
      4 N         -11.1071   11.1604   -0.4312 N.am        1 ACT      -0.2628
      5 CA        -10.8395   12.5775   -0.2821 C.3         1 ACT       0.1465
      6 C         -11.2270   13.0672    1.0414 C.2         1 ACT       0.2045
      7 O         -10.6053   14.0103    1.5194 O.2         1 ACT      -0.3944
      8 CB        -11.5242   13.4565   -1.3783 C.3         1 ACT       0.0400
      9 CG        -11.2379   13.0702   -2.7865 C.ar        1 ACT      -0.0004
     10 CD1       -12.2864   12.9663   -3.7269 C.ar        1 ACT      -0.0239
     11 CD2        -9.9142   12.8301   -3.2243 C.ar        1 ACT      -0.0239
     12 CE1       -12.0323   12.5528   -5.0505 C.ar        1 ACT       0.0115
     13 CE2        -9.6571   12.4084   -4.5485 C.ar        1 ACT       0.0115
     14 CZ        -10.7255   12.2094   -5.4500 C.ar        1 ACT       0.1728
     15 OH        -10.4920   11.7782   -6.7299 O.3         1 ACT      -0.2040
     16 P         -10.4577   10.2230   -6.8595 P.3         1 ACT       0.1348
     17 O1P       -11.6695    9.5848   -6.4005 O.co2       1 ACT      -0.6653
     18 O2P       -10.3236    9.9053   -8.2600 O.co2       1 ACT      -0.6653
     19 O3P        -9.3274    9.6435   -6.1799 O.co2       1 ACT      -0.6653
     20 CB        -13.4244   14.3376    3.0634 C.3         1 ACT      -0.0184
     21 CG        -14.2447   13.0455    3.1140 C.3         1 ACT      -0.0184
     22 CA        -12.7038   12.9689    3.0077 C.3         1 ACT       0.1329
     23 C         -11.8896   12.6371    4.1722 C.2         1 ACT       0.2267
     24 O         -12.4238   12.4894    5.2639 O.2         1 ACT      -0.3419
     25 N         -12.2600   12.5615    1.7046 N.am        1 ACT      -0.2738
     26 N         -10.5712   12.5128    4.0414 N.am        1 ACT      -0.2608
     27 CA         -9.5968   12.2284    5.0608 C.3         1 ACT       0.1474
     28 C          -9.8805   10.9579    5.7295 C.2         1 ACT       0.2017
     29 O         -10.5767   10.9005    6.7340 O.2         1 ACT      -0.3945
     30 CB         -9.3704   13.4539    6.0162 C.3         1 ACT       0.0774
     31 CG         -8.1384   14.1813    5.7544 C.2         1 ACT       0.1781
     32 OD1        -8.1319   15.1421    5.0019 O.2         1 ACT      -0.3970
     33 ND2        -7.0006   13.7897    6.2843 N.am        1 ACT      -0.3007
     34 N          -9.4308    9.8158    5.2548 N.am        1 ACT      -0.2988
     35 H1        -11.6799    8.6952   -0.6137 H           1 ACT       0.0467
     36 H2        -10.0181    8.2145   -0.9921 H           1 ACT       0.0467
     37 H3        -11.1154    8.7101   -2.2927 H           1 ACT       0.0467
     38 H4        -11.9020   10.8136    0.0057 H           1 ACT       0.1885
     39 H5         -9.7540   12.7384   -0.3576 H           1 ACT       0.0840
     40 H6        -11.1938   14.4924   -1.2629 H           1 ACT       0.0584
     41 H7        -12.6017   13.4467   -1.1899 H           1 ACT       0.0584
     42 H8        -13.2479   13.1854   -3.4641 H           1 ACT       0.0703
     43 H9         -9.1246   12.9800   -2.5972 H           1 ACT       0.0703
     44 H10       -12.8038   12.4888   -5.7173 H           1 ACT       0.0736
     45 H11        -8.6973   12.2149   -4.8415 H           1 ACT       0.0736
     46 H12       -13.4242   14.8872    4.0065 H           1 ACT       0.0276
     47 H13       -13.5474   14.8968    2.1327 H           1 ACT       0.0276
     48 H14       -14.8141   12.8269    2.2053 H           1 ACT       0.0276
     49 H15       -14.6998   12.8188    4.0792 H           1 ACT       0.0276
     50 H16       -12.7433   11.8219    1.2973 H           1 ACT       0.1839
     51 H17       -10.2086   12.6780    3.1539 H           1 ACT       0.1891
     52 H18        -8.6692   12.0663    4.4961 H           1 ACT       0.0828
     53 H19        -9.3641   13.1335    7.0593 H           1 ACT       0.0551
     54 H20       -10.2007   14.1617    5.9263 H           1 ACT       0.0551
     55 H21        -6.1848   14.2738    6.0917 H           1 ACT       0.1814
     56 H22        -6.9778   13.0142    6.8630 H           1 ACT       0.1814
     57 H23        -9.6682    8.9798    5.6909 H           1 ACT       0.1815
     58 H24        -8.8703    9.7921    4.4596 H           1 ACT       0.1815
@<TRIPOS>BOND
     1     1     2   2
     2     1     3   1
     3     4     1  am
     4     5     4   1
     5     6     5   1
     6     5     8   1
     7     6     7   2
     8    25     6  am
     9     8     9   1
    10     9    10  ar
    11     9    11  ar
    12    10    12  ar
    13    11    13  ar
    14    12    14  ar
    15    13    14  ar
    16    14    15   1
    17    15    16   1
    18    16    17  ar
    19    16    18  ar
    20    16    19  ar
    21    21    20   1
    22    22    20   1
    23    22    21   1
    24    22    23   1
    25    22    25   1
    26    23    24   2
    27    23    26  am
    28    26    27   1
    29    27    28   1
    30    27    30   1
    31    28    29   2
    32    28    34  am
    33    30    31   1
    34    31    32   2
    35    31    33  am
    36     3    35   1
    37     3    36   1
    38     3    37   1
    39     4    38   1
    40     5    39   1
    41     8    40   1
    42     8    41   1
    43    10    42   1
    44    11    43   1
    45    12    44   1
    46    13    45   1
    47    20    46   1
    48    20    47   1
    49    21    48   1
    50    21    49   1
    51    25    50   1
    52    26    51   1
    53    27    52   1
    54    30    53   1
    55    30    54   1
    56    33    55   1
    57    33    56   1
    58    34    57   1
    59    34    58   1
@<TRIPOS>SUBSTRUCTURE
     1  ACT      1

