@<TRIPOS>MOLECULE
3ov1_ligand_041
    58    59
SMALL
GAST_HUCK
****
This file was generated by PARSER (from files_GN.cpp)

@<TRIPOS>ATOM
      1 C         -12.9582   11.6870   -1.6983 C.2         1 ACT       0.1753
      2 O         -13.7878   11.9464   -2.5602 O.2         1 ACT      -0.3972
      3 CH3       -12.0004   10.6315   -1.9546 C.3         1 ACT       0.0258
      4 N         -12.9142   12.3461   -0.5494 N.am        1 ACT      -0.2628
      5 CA        -13.7497   13.4347   -0.1206 C.3         1 ACT       0.1465
      6 C         -13.1882   13.9137    1.1461 C.2         1 ACT       0.2045
      7 O         -12.7488   15.0552    1.2115 O.2         1 ACT      -0.3944
      8 CB        -15.2591   13.0264   -0.0028 C.3         1 ACT       0.0400
      9 CG        -16.1104   14.0153    0.7250 C.ar        1 ACT      -0.0004
     10 CD1       -16.4192   15.2695    0.1489 C.ar        1 ACT      -0.0239
     11 CD2       -16.5873   13.7387    2.0295 C.ar        1 ACT      -0.0239
     12 CE1       -17.1503   16.2311    0.8729 C.ar        1 ACT       0.0115
     13 CE2       -17.2901   14.7106    2.7647 C.ar        1 ACT       0.0115
     14 CZ        -17.5509   15.9771    2.1991 C.ar        1 ACT       0.1728
     15 OH        -18.2481   16.9311    2.8870 O.3         1 ACT      -0.2040
     16 P         -17.3703   17.8837    3.7501 P.3         1 ACT       0.1348
     17 O1P       -17.9149   19.2100    3.5888 O.co2       1 ACT      -0.6653
     18 O2P       -17.5190   17.5642    5.1468 O.co2       1 ACT      -0.6653
     19 O3P       -15.9690   17.9619    3.4228 O.co2       1 ACT      -0.6653
     20 CB        -13.3718   14.5976    4.2557 C.3         1 ACT      -0.0184
     21 CG        -13.7303   13.1494    4.5977 C.3         1 ACT      -0.0184
     22 CA        -12.6635   13.4363    3.5092 C.3         1 ACT       0.1329
     23 C         -11.3430   12.9233    3.8837 C.2         1 ACT       0.2267
     24 O         -10.7943   12.1451    3.1132 O.2         1 ACT      -0.3419
     25 N         -13.1689   13.1124    2.2016 N.am        1 ACT      -0.2738
     26 N         -10.7690   13.2849    5.0330 N.am        1 ACT      -0.2608
     27 CA         -9.5414   12.8880    5.6771 C.3         1 ACT       0.1474
     28 C          -8.6792   14.0491    5.8840 C.2         1 ACT       0.2017
     29 O          -8.8092   15.0877    5.2502 O.2         1 ACT      -0.3945
     30 CB         -8.7200   11.6826    5.1009 C.3         1 ACT       0.0774
     31 CG         -9.4297   10.4123    5.1292 C.2         1 ACT       0.1781
     32 OD1        -9.5184    9.7294    4.1222 O.2         1 ACT      -0.3970
     33 ND2        -9.9328    9.9222    6.2367 N.am        1 ACT      -0.3007
     34 N          -7.7306   14.0243    6.7956 N.am        1 ACT      -0.2988
     35 H1        -11.3175   10.4900   -1.1121 H           1 ACT       0.0467
     36 H2        -11.4061   10.8714   -2.8403 H           1 ACT       0.0467
     37 H3        -12.5204    9.6873   -2.1324 H           1 ACT       0.0467
     38 H4        -12.2110   12.0796    0.0610 H           1 ACT       0.1885
     39 H5        -13.6738   14.2267   -0.8704 H           1 ACT       0.0840
     40 H6        -15.3173   12.0516    0.4880 H           1 ACT       0.0584
     41 H7        -15.6869   12.8925   -1.0009 H           1 ACT       0.0584
     42 H8        -16.0997   15.4972   -0.7995 H           1 ACT       0.0703
     43 H9        -16.3941   12.8321    2.4643 H           1 ACT       0.0703
     44 H10       -17.3726   17.1296    0.4361 H           1 ACT       0.0736
     45 H11       -17.5965   14.5018    3.7176 H           1 ACT       0.0736
     46 H12       -12.8246   15.1308    5.0360 H           1 ACT       0.0276
     47 H13       -14.1671   15.1279    3.7257 H           1 ACT       0.0276
     48 H14       -14.7299   12.8571    4.2774 H           1 ACT       0.0276
     49 H15       -13.4041   12.8397    5.5942 H           1 ACT       0.0276
     50 H16       -13.5130   12.2096    2.0778 H           1 ACT       0.1839
     51 H17       -11.2731   13.9370    5.5486 H           1 ACT       0.1891
     52 H18        -9.8741   12.5919    6.6784 H           1 ACT       0.0828
     53 H19        -7.8116   11.5372    5.6943 H           1 ACT       0.0551
     54 H20        -8.3879   11.9181    4.0867 H           1 ACT       0.0551
     55 H21       -10.3950    9.0647    6.2245 H           1 ACT       0.1814
     56 H22        -9.8609   10.4092    7.0761 H           1 ACT       0.1814
     57 H23        -7.1689   14.8030    6.9442 H           1 ACT       0.1815
     58 H24        -7.5860   13.2180    7.3188 H           1 ACT       0.1815
@<TRIPOS>BOND
     1     1     2   2
     2     1     3   1
     3     4     1  am
     4     5     4   1
     5     6     5   1
     6     5     8   1
     7     6     7   2
     8    25     6  am
     9     8     9   1
    10     9    10  ar
    11     9    11  ar
    12    10    12  ar
    13    11    13  ar
    14    12    14  ar
    15    13    14  ar
    16    14    15   1
    17    15    16   1
    18    16    17  ar
    19    16    18  ar
    20    16    19  ar
    21    21    20   1
    22    22    20   1
    23    22    21   1
    24    22    23   1
    25    22    25   1
    26    23    24   2
    27    23    26  am
    28    26    27   1
    29    27    28   1
    30    27    30   1
    31    28    29   2
    32    28    34  am
    33    30    31   1
    34    31    32   2
    35    31    33  am
    36     3    35   1
    37     3    36   1
    38     3    37   1
    39     4    38   1
    40     5    39   1
    41     8    40   1
    42     8    41   1
    43    10    42   1
    44    11    43   1
    45    12    44   1
    46    13    45   1
    47    20    46   1
    48    20    47   1
    49    21    48   1
    50    21    49   1
    51    25    50   1
    52    26    51   1
    53    27    52   1
    54    30    53   1
    55    30    54   1
    56    33    55   1
    57    33    56   1
    58    34    57   1
    59    34    58   1
@<TRIPOS>SUBSTRUCTURE
     1  ACT      1

