@<TRIPOS>MOLECULE
3ov1_ligand_067
    58    59
SMALL
GAST_HUCK
****
This file was generated by PARSER (from files_GN.cpp)

@<TRIPOS>ATOM
      1 C         -16.0375   14.5382    7.1950 C.2         1 ACT       0.1753
      2 O         -15.6434   13.4484    7.5862 O.2         1 ACT      -0.3972
      3 CH3       -16.1282   15.6079    8.1602 C.3         1 ACT       0.0258
      4 N         -16.2936   14.7729    5.9128 N.am        1 ACT      -0.2628
      5 CA        -16.1008   13.8575    4.8160 C.3         1 ACT       0.1465
      6 C         -14.8901   14.1626    4.0416 C.2         1 ACT       0.2045
      7 O         -14.7580   13.6572    2.9361 O.2         1 ACT      -0.3944
      8 CB        -17.4141   13.7878    3.9669 C.3         1 ACT       0.0400
      9 CG        -17.6616   14.9411    3.0545 C.ar        1 ACT      -0.0004
     10 CD1       -17.3247   14.8620    1.6835 C.ar        1 ACT      -0.0239
     11 CD2       -18.2847   16.1197    3.5305 C.ar        1 ACT      -0.0239
     12 CE1       -17.5844   15.9391    0.8154 C.ar        1 ACT       0.0115
     13 CE2       -18.5553   17.1918    2.6609 C.ar        1 ACT       0.0115
     14 CZ        -18.1787   17.1225    1.3036 C.ar        1 ACT       0.1728
     15 OH        -18.4809   18.1542    0.4559 O.3         1 ACT      -0.2040
     16 P         -17.3438   19.2166    0.3244 P.3         1 ACT       0.1348
     17 O1P       -16.1638   18.6697   -0.2942 O.co2       1 ACT      -0.6653
     18 O2P       -17.8260   20.2550   -0.5421 O.co2       1 ACT      -0.6653
     19 O3P       -17.0004   19.8320    1.5778 O.co2       1 ACT      -0.6653
     20 CB        -12.5768   15.4127    2.4174 C.3         1 ACT      -0.0184
     21 CG        -12.7151   16.6243    3.3379 C.3         1 ACT      -0.0184
     22 CA        -12.6530   15.2027    3.9456 C.3         1 ACT       0.1329
     23 C         -11.4357   14.8362    4.6515 C.2         1 ACT       0.2267
     24 O         -10.7880   15.6950    5.2324 O.2         1 ACT      -0.3419
     25 N         -13.8843   14.8513    4.5750 N.am        1 ACT      -0.2738
     26 N         -11.0797   13.5579    4.6670 N.am        1 ACT      -0.2608
     27 CA         -9.8906   12.9800    5.2394 C.3         1 ACT       0.1474
     28 C          -8.9662   12.7462    4.1304 C.2         1 ACT       0.2017
     29 O          -9.3083   12.1086    3.1442 O.2         1 ACT      -0.3945
     30 CB        -10.2371   11.7317    6.1363 C.3         1 ACT       0.0774
     31 CG         -9.6800   10.4334    5.7672 C.2         1 ACT       0.1781
     32 OD1       -10.3610    9.4235    5.7828 O.2         1 ACT      -0.3970
     33 ND2        -8.4153   10.2913    5.4297 N.am        1 ACT      -0.3007
     34 N          -7.7085   13.1343    4.1946 N.am        1 ACT      -0.2988
     35 H1        -16.4691   16.5412    7.7088 H           1 ACT       0.0467
     36 H2        -15.1441   15.7828    8.5976 H           1 ACT       0.0467
     37 H3        -16.8249   15.3334    8.9529 H           1 ACT       0.0467
     38 H4        -16.5574   15.6783    5.6835 H           1 ACT       0.1885
     39 H5        -15.9570   12.8451    5.2067 H           1 ACT       0.0840
     40 H6        -18.2683   13.6898    4.6462 H           1 ACT       0.0584
     41 H7        -17.4023   12.8569    3.3887 H           1 ACT       0.0584
     42 H8        -16.8907   14.0174    1.3061 H           1 ACT       0.0703
     43 H9        -18.5598   16.2025    4.5109 H           1 ACT       0.0703
     44 H10       -17.3366   15.8631   -0.1727 H           1 ACT       0.0736
     45 H11       -19.0228   18.0281    3.0162 H           1 ACT       0.0736
     46 H12       -11.5959   15.2951    1.9484 H           1 ACT       0.0276
     47 H13       -13.4709   15.1980    1.8244 H           1 ACT       0.0276
     48 H14       -13.6960   17.1077    3.2778 H           1 ACT       0.0276
     49 H15       -11.8224   17.2561    3.3514 H           1 ACT       0.0276
     50 H16       -13.9633   15.1154    5.5027 H           1 ACT       0.1839
     51 H17       -11.6698   12.9371    4.2109 H           1 ACT       0.1891
     52 H18        -9.4215   13.7141    5.9080 H           1 ACT       0.0828
     53 H19       -11.3246   11.6244    6.1958 H           1 ACT       0.0551
     54 H20        -9.9012   11.9356    7.1584 H           1 ACT       0.0551
     55 H21        -8.0819    9.4334    5.1320 H           1 ACT       0.1814
     56 H22        -7.8203   11.0598    5.4249 H           1 ACT       0.1814
     57 H23        -7.0982   12.9289    3.4693 H           1 ACT       0.1815
     58 H24        -7.3860   13.6253    4.9672 H           1 ACT       0.1815
@<TRIPOS>BOND
     1     1     2   2
     2     1     3   1
     3     4     1  am
     4     5     4   1
     5     6     5   1
     6     5     8   1
     7     6     7   2
     8    25     6  am
     9     8     9   1
    10     9    10  ar
    11     9    11  ar
    12    10    12  ar
    13    11    13  ar
    14    12    14  ar
    15    13    14  ar
    16    14    15   1
    17    15    16   1
    18    16    17  ar
    19    16    18  ar
    20    16    19  ar
    21    21    20   1
    22    22    20   1
    23    22    21   1
    24    22    23   1
    25    22    25   1
    26    23    24   2
    27    23    26  am
    28    26    27   1
    29    27    28   1
    30    27    30   1
    31    28    29   2
    32    28    34  am
    33    30    31   1
    34    31    32   2
    35    31    33  am
    36     3    35   1
    37     3    36   1
    38     3    37   1
    39     4    38   1
    40     5    39   1
    41     8    40   1
    42     8    41   1
    43    10    42   1
    44    11    43   1
    45    12    44   1
    46    13    45   1
    47    20    46   1
    48    20    47   1
    49    21    48   1
    50    21    49   1
    51    25    50   1
    52    26    51   1
    53    27    52   1
    54    30    53   1
    55    30    54   1
    56    33    55   1
    57    33    56   1
    58    34    57   1
    59    34    58   1
@<TRIPOS>SUBSTRUCTURE
     1  ACT      1

