@<TRIPOS>MOLECULE
3ov1_ligand_093
    58    59
SMALL
GAST_HUCK
****
This file was generated by PARSER (from files_GN.cpp)

@<TRIPOS>ATOM
      1 C          -9.7253   13.6821   -2.6810 C.2         1 ACT       0.1753
      2 O          -8.8204   13.4824   -1.8820 O.2         1 ACT      -0.3972
      3 CH3        -9.3855   14.3555   -3.9141 C.3         1 ACT       0.0258
      4 N         -10.9682   13.2539   -2.4755 N.am        1 ACT      -0.2628
      5 CA        -11.5077   12.5203   -1.3551 C.3         1 ACT       0.1465
      6 C         -11.6452   13.3642   -0.1672 C.2         1 ACT       0.2045
      7 O         -12.7643   13.5919    0.2804 O.2         1 ACT      -0.3944
      8 CB        -10.7756   11.1755   -1.0329 C.3         1 ACT       0.0400
      9 CG        -10.3928   10.4160   -2.2589 C.ar        1 ACT      -0.0004
     10 CD1       -11.3074    9.5205   -2.8499 C.ar        1 ACT      -0.0239
     11 CD2        -9.1388   10.6066   -2.8884 C.ar        1 ACT      -0.0239
     12 CE1       -10.9819    8.8433   -4.0354 C.ar        1 ACT       0.0115
     13 CE2        -8.8313    9.9558   -4.0992 C.ar        1 ACT       0.0115
     14 CZ         -9.7617    9.0869   -4.7075 C.ar        1 ACT       0.1728
     15 OH         -9.3695    8.4419   -5.8572 O.3         1 ACT      -0.2040
     16 P         -10.3392    8.3940   -7.0791 P.3         1 ACT       0.1348
     17 O1P       -10.8537    9.6857   -7.4551 O.co2       1 ACT      -0.6653
     18 O2P        -9.5518    7.8875   -8.1659 O.co2       1 ACT      -0.6653
     19 O3P       -11.4058    7.4550   -6.8527 O.co2       1 ACT      -0.6653
     20 CB         -9.7061   15.9633    1.2956 C.3         1 ACT      -0.0184
     21 CG        -11.2128   16.0609    1.5422 C.3         1 ACT      -0.0184
     22 CA        -10.5183   14.6778    1.5897 C.3         1 ACT       0.1329
     23 C         -10.1227   14.0430    2.8424 C.2         1 ACT       0.2267
     24 O         -10.5006   14.5298    3.8985 O.2         1 ACT      -0.3419
     25 N         -10.5679   13.8515    0.4275 N.am        1 ACT      -0.2738
     26 N          -9.3678   12.9486    2.8081 N.am        1 ACT      -0.2608
     27 CA         -8.7945   12.1773    3.8801 C.3         1 ACT       0.1474
     28 C          -9.7606   11.5148    4.7574 C.2         1 ACT       0.2017
     29 O         -10.5726   12.1502    5.4135 O.2         1 ACT      -0.3945
     30 CB         -7.6554   12.9072    4.6578 C.3         1 ACT       0.0774
     31 CG         -8.0315   14.0622    5.4544 C.2         1 ACT       0.1781
     32 OD1        -8.1454   15.1630    4.9368 O.2         1 ACT      -0.3970
     33 ND2        -8.1405   13.9846    6.7635 N.am        1 ACT      -0.3007
     34 N          -9.7250   10.2147    4.9614 N.am        1 ACT      -0.2988
     35 H1        -10.2510   14.4558   -4.5761 H           1 ACT       0.0467
     36 H2         -8.6119   13.7876   -4.4389 H           1 ACT       0.0467
     37 H3         -9.0007   15.3540   -3.6888 H           1 ACT       0.0467
     38 H4        -11.5980   13.4330   -3.1956 H           1 ACT       0.1885
     39 H5        -12.5136   12.2372   -1.6839 H           1 ACT       0.0840
     40 H6        -11.4355   10.5508   -0.4199 H           1 ACT       0.0584
     41 H7         -9.8911   11.3616   -0.4258 H           1 ACT       0.0584
     42 H8        -12.2236    9.3630   -2.4203 H           1 ACT       0.0703
     43 H9         -8.4453   11.2403   -2.4837 H           1 ACT       0.0703
     44 H10       -11.6612    8.1903   -4.4252 H           1 ACT       0.0736
     45 H11        -7.9264   10.1252   -4.5471 H           1 ACT       0.0736
     46 H12        -9.1078   16.4106    2.0916 H           1 ACT       0.0276
     47 H13        -9.4260   16.1767    0.2596 H           1 ACT       0.0276
     48 H14       -11.8141   16.2778    0.6566 H           1 ACT       0.0276
     49 H15       -11.5053   16.5052    2.4952 H           1 ACT       0.0276
     50 H16        -9.7102   13.5899    0.0613 H           1 ACT       0.1839
     51 H17        -9.1479   12.6272    1.9180 H           1 ACT       0.1891
     52 H18        -8.2665   11.3795    3.3441 H           1 ACT       0.0828
     53 H19        -6.8896   13.2188    3.9397 H           1 ACT       0.0551
     54 H20        -7.1760   12.1699    5.3092 H           1 ACT       0.0551
     55 H21        -8.3518   14.7798    7.2787 H           1 ACT       0.1814
     56 H22        -7.9899   13.1364    7.2151 H           1 ACT       0.1814
     57 H23       -10.3464    9.8045    5.5852 H           1 ACT       0.1815
     58 H24        -9.0597    9.6674    4.5110 H           1 ACT       0.1815
@<TRIPOS>BOND
     1     1     2   2
     2     1     3   1
     3     4     1  am
     4     5     4   1
     5     6     5   1
     6     5     8   1
     7     6     7   2
     8    25     6  am
     9     8     9   1
    10     9    10  ar
    11     9    11  ar
    12    10    12  ar
    13    11    13  ar
    14    12    14  ar
    15    13    14  ar
    16    14    15   1
    17    15    16   1
    18    16    17  ar
    19    16    18  ar
    20    16    19  ar
    21    21    20   1
    22    22    20   1
    23    22    21   1
    24    22    23   1
    25    22    25   1
    26    23    24   2
    27    23    26  am
    28    26    27   1
    29    27    28   1
    30    27    30   1
    31    28    29   2
    32    28    34  am
    33    30    31   1
    34    31    32   2
    35    31    33  am
    36     3    35   1
    37     3    36   1
    38     3    37   1
    39     4    38   1
    40     5    39   1
    41     8    40   1
    42     8    41   1
    43    10    42   1
    44    11    43   1
    45    12    44   1
    46    13    45   1
    47    20    46   1
    48    20    47   1
    49    21    48   1
    50    21    49   1
    51    25    50   1
    52    26    51   1
    53    27    52   1
    54    30    53   1
    55    30    54   1
    56    33    55   1
    57    33    56   1
    58    34    57   1
    59    34    58   1
@<TRIPOS>SUBSTRUCTURE
     1  ACT      1

