@<TRIPOS>MOLECULE
3ov1_ligand_089
    58    59
SMALL
GAST_HUCK
****
This file was generated by PARSER (from files_GN.cpp)

@<TRIPOS>ATOM
      1 C          -9.3589   15.5788    0.0309 C.2         1 ACT       0.1753
      2 O          -8.4059   15.5680   -0.7404 O.2         1 ACT      -0.3972
      3 CH3        -9.2890   16.4525    1.1787 C.3         1 ACT       0.0258
      4 N         -10.4438   14.8415   -0.1844 N.am        1 ACT      -0.2628
      5 CA        -10.6647   13.9002   -1.2636 C.3         1 ACT       0.1465
      6 C         -11.8149   14.2728   -2.0960 C.2         1 ACT       0.2045
      7 O         -12.0371   13.6019   -3.0998 O.2         1 ACT      -0.3944
      8 CB        -10.7941   12.4726   -0.6337 C.3         1 ACT       0.0400
      9 CG        -10.6666   11.3384   -1.5991 C.ar        1 ACT      -0.0004
     10 CD1       -11.6855   10.3606   -1.7206 C.ar        1 ACT      -0.0239
     11 CD2        -9.5270   11.2263   -2.4321 C.ar        1 ACT      -0.0239
     12 CE1       -11.5905    9.3342   -2.6789 C.ar        1 ACT       0.0115
     13 CE2        -9.4275   10.1911   -3.3847 C.ar        1 ACT       0.0115
     14 CZ        -10.4729    9.2544   -3.5385 C.ar        1 ACT       0.1728
     15 OH        -10.3629    8.2269   -4.4376 O.3         1 ACT      -0.2040
     16 P         -10.5370    8.6054   -5.9389 P.3         1 ACT       0.1348
     17 O1P       -11.6764    7.9024   -6.4780 O.co2       1 ACT      -0.6653
     18 O2P       -10.6519   10.0090   -6.2681 O.co2       1 ACT      -0.6653
     19 O3P        -9.3829    8.0907   -6.6275 O.co2       1 ACT      -0.6653
     20 CB        -13.4270   17.3436   -2.9662 C.3         1 ACT      -0.0184
     21 CG        -13.3754   16.3049   -4.0907 C.3         1 ACT      -0.0184
     22 CA        -13.6417   15.8420   -2.6389 C.3         1 ACT       0.1329
     23 C         -14.9850   15.4018   -2.2861 C.2         1 ACT       0.2267
     24 O         -15.8566   16.2237   -2.0224 O.2         1 ACT      -0.3419
     25 N         -12.5549   15.3477   -1.8480 N.am        1 ACT      -0.2738
     26 N         -15.2479   14.0997   -2.2185 N.am        1 ACT      -0.2608
     27 CA        -16.4853   13.5072   -1.7742 C.3         1 ACT       0.1474
     28 C         -16.1659   12.3833   -0.8915 C.2         1 ACT       0.2017
     29 O         -16.7011   11.2869   -0.9903 O.2         1 ACT      -0.3945
     30 CB        -17.4030   13.1729   -3.0104 C.3         1 ACT       0.0774
     31 CG        -18.7531   13.7018   -2.9035 C.2         1 ACT       0.1781
     32 OD1       -19.4402   13.4595   -1.9216 O.2         1 ACT      -0.3970
     33 ND2       -19.2910   14.4112   -3.8771 N.am        1 ACT      -0.3007
     34 N         -15.2832   12.5181    0.0784 N.am        1 ACT      -0.2988
     35 H1        -10.1730   16.3635    1.8136 H           1 ACT       0.0467
     36 H2         -9.2035   17.4902    0.8525 H           1 ACT       0.0467
     37 H3         -8.4127   16.1959    1.7748 H           1 ACT       0.0467
     38 H4        -11.1793   14.9605    0.4431 H           1 ACT       0.1885
     39 H5         -9.7861   13.8883   -1.9190 H           1 ACT       0.0840
     40 H6        -11.7474   12.4178   -0.0985 H           1 ACT       0.0584
     41 H7        -10.0127   12.3431    0.1204 H           1 ACT       0.0584
     42 H8        -12.5200   10.4039   -1.1277 H           1 ACT       0.0703
     43 H9         -8.7715   11.9113   -2.3522 H           1 ACT       0.0703
     44 H10       -12.3482    8.6548   -2.7707 H           1 ACT       0.0736
     45 H11        -8.6004   10.1319   -3.9819 H           1 ACT       0.0736
     46 H12       -14.2968   18.0005   -3.0100 H           1 ACT       0.0276
     47 H13       -12.4536   17.7853   -2.7361 H           1 ACT       0.0276
     48 H14       -12.3766   16.1193   -4.4925 H           1 ACT       0.0276
     49 H15       -14.2274   16.3415   -4.7743 H           1 ACT       0.0276
     50 H16       -12.3238   15.8684   -1.0619 H           1 ACT       0.1839
     51 H17       -14.5152   13.4969   -2.4265 H           1 ACT       0.1891
     52 H18       -16.9986   14.2360   -1.1349 H           1 ACT       0.0828
     53 H19       -17.4919   12.0911   -3.1480 H           1 ACT       0.0551
     54 H20       -16.9412   13.5586   -3.9279 H           1 ACT       0.0551
     55 H21       -20.2052   14.7252   -3.8040 H           1 ACT       0.1814
     56 H22       -18.7813   14.6136   -4.6788 H           1 ACT       0.1814
     57 H23       -15.0585   11.7594    0.6397 H           1 ACT       0.1815
     58 H24       -14.8231   13.3640    0.2042 H           1 ACT       0.1815
@<TRIPOS>BOND
     1     1     2   2
     2     1     3   1
     3     4     1  am
     4     5     4   1
     5     6     5   1
     6     5     8   1
     7     6     7   2
     8    25     6  am
     9     8     9   1
    10     9    10  ar
    11     9    11  ar
    12    10    12  ar
    13    11    13  ar
    14    12    14  ar
    15    13    14  ar
    16    14    15   1
    17    15    16   1
    18    16    17  ar
    19    16    18  ar
    20    16    19  ar
    21    21    20   1
    22    22    20   1
    23    22    21   1
    24    22    23   1
    25    22    25   1
    26    23    24   2
    27    23    26  am
    28    26    27   1
    29    27    28   1
    30    27    30   1
    31    28    29   2
    32    28    34  am
    33    30    31   1
    34    31    32   2
    35    31    33  am
    36     3    35   1
    37     3    36   1
    38     3    37   1
    39     4    38   1
    40     5    39   1
    41     8    40   1
    42     8    41   1
    43    10    42   1
    44    11    43   1
    45    12    44   1
    46    13    45   1
    47    20    46   1
    48    20    47   1
    49    21    48   1
    50    21    49   1
    51    25    50   1
    52    26    51   1
    53    27    52   1
    54    30    53   1
    55    30    54   1
    56    33    55   1
    57    33    56   1
    58    34    57   1
    59    34    58   1
@<TRIPOS>SUBSTRUCTURE
     1  ACT      1

