@<TRIPOS>MOLECULE
3ov1_ligand_096
    58    59
SMALL
GAST_HUCK
****
This file was generated by PARSER (from files_GN.cpp)

@<TRIPOS>ATOM
      1 C         -18.7456   13.5024    1.3956 C.2         1 ACT       0.1753
      2 O         -18.6923   14.6752    1.0494 O.2         1 ACT      -0.3972
      3 CH3       -18.5246   12.4906    0.3921 C.3         1 ACT       0.0258
      4 N         -19.0778   13.1481    2.6321 N.am        1 ACT      -0.2628
      5 CA        -19.4855   14.0169    3.7053 C.3         1 ACT       0.1465
      6 C         -18.6666   13.6956    4.8722 C.2         1 ACT       0.2045
      7 O         -19.1072   12.9753    5.7671 O.2         1 ACT      -0.3944
      8 CB        -21.0316   13.8867    3.9222 C.3         1 ACT       0.0400
      9 CG        -21.7987   13.5981    2.6765 C.ar        1 ACT      -0.0004
     10 CD1       -21.7729   12.2990    2.1131 C.ar        1 ACT      -0.0239
     11 CD2       -22.5250   14.6118    2.0056 C.ar        1 ACT      -0.0239
     12 CE1       -22.4619   12.0193    0.9231 C.ar        1 ACT       0.0115
     13 CE2       -23.2189   14.3256    0.8159 C.ar        1 ACT       0.0115
     14 CZ        -23.1786   13.0335    0.2507 C.ar        1 ACT       0.1728
     15 OH        -23.8997   12.8007   -0.8906 O.3         1 ACT      -0.2040
     16 P         -23.1052   12.2398   -2.1025 P.3         1 ACT       0.1348
     17 O1P       -23.1580   10.7966   -2.0705 O.co2       1 ACT      -0.6653
     18 O2P       -23.7716   12.6468   -3.3180 O.co2       1 ACT      -0.6653
     19 O3P       -21.7193   12.6458   -2.1898 O.co2       1 ACT      -0.6653
     20 CB        -16.2224   12.3779    6.2881 C.3         1 ACT      -0.0184
     21 CG        -15.1830   13.1976    5.5094 C.3         1 ACT      -0.0184
     22 CA        -16.4866   13.8694    5.9813 C.3         1 ACT       0.1329
     23 C         -16.3974   14.7932    7.0896 C.2         1 ACT       0.2267
     24 O         -16.9381   14.4882    8.1446 O.2         1 ACT      -0.3419
     25 N         -17.4208   14.1551    4.9391 N.am        1 ACT      -0.2738
     26 N         -15.7935   15.9612    6.9054 N.am        1 ACT      -0.2608
     27 CA        -15.6937   17.0348    7.8590 C.3         1 ACT       0.1474
     28 C         -15.7731   18.3308    7.1841 C.2         1 ACT       0.2017
     29 O         -16.6318   19.1445    7.4844 O.2         1 ACT      -0.3945
     30 CB        -14.4266   16.8712    8.7597 C.3         1 ACT       0.0774
     31 CG        -13.1677   17.3789    8.2298 C.2         1 ACT       0.1781
     32 OD1       -12.7836   17.0479    7.1154 O.2         1 ACT      -0.3970
     33 ND2       -12.4023   18.1921    8.9269 N.am        1 ACT      -0.3007
     34 N         -14.9321   18.6729    6.2290 N.am        1 ACT      -0.2988
     35 H1        -18.6244   11.4814    0.7996 H           1 ACT       0.0467
     36 H2        -17.5217   12.5970   -0.0266 H           1 ACT       0.0467
     37 H3        -19.2572   12.6063   -0.4104 H           1 ACT       0.0467
     38 H4        -19.1285   12.1955    2.8059 H           1 ACT       0.1885
     39 H5        -19.2895   15.0668    3.4570 H           1 ACT       0.0840
     40 H6        -21.4031   14.8123    4.3730 H           1 ACT       0.0584
     41 H7        -21.2438   13.0922    4.6425 H           1 ACT       0.0584
     42 H8        -21.2307   11.5523    2.5611 H           1 ACT       0.0703
     43 H9        -22.5565   15.5643    2.3781 H           1 ACT       0.0703
     44 H10       -22.3983   11.0808    0.5265 H           1 ACT       0.0736
     45 H11       -23.7457   15.0642    0.3441 H           1 ACT       0.0736
     46 H12       -15.9361   12.1112    7.3106 H           1 ACT       0.0276
     47 H13       -16.8053   11.6639    5.7008 H           1 ACT       0.0276
     48 H14       -15.1105   12.9344    4.4532 H           1 ACT       0.0276
     49 H15       -14.2680   13.4073    6.0661 H           1 ACT       0.0276
     50 H16       -17.1117   14.7171    4.2069 H           1 ACT       0.1839
     51 H17       -15.3517   16.0986    6.0520 H           1 ACT       0.1891
     52 H18       -16.5479   16.9744    8.5441 H           1 ACT       0.0828
     53 H19       -14.2771   15.8063    8.9671 H           1 ACT       0.0551
     54 H20       -14.6302   17.3486    9.7293 H           1 ACT       0.0551
     55 H21       -11.5617   18.5140    8.5520 H           1 ACT       0.1814
     56 H22       -12.6696   18.4669    9.8245 H           1 ACT       0.1814
     57 H23       -15.0196   19.5367    5.7930 H           1 ACT       0.1815
     58 H24       -14.2310   18.0612    5.9500 H           1 ACT       0.1815
@<TRIPOS>BOND
     1     1     2   2
     2     1     3   1
     3     4     1  am
     4     5     4   1
     5     6     5   1
     6     5     8   1
     7     6     7   2
     8    25     6  am
     9     8     9   1
    10     9    10  ar
    11     9    11  ar
    12    10    12  ar
    13    11    13  ar
    14    12    14  ar
    15    13    14  ar
    16    14    15   1
    17    15    16   1
    18    16    17  ar
    19    16    18  ar
    20    16    19  ar
    21    21    20   1
    22    22    20   1
    23    22    21   1
    24    22    23   1
    25    22    25   1
    26    23    24   2
    27    23    26  am
    28    26    27   1
    29    27    28   1
    30    27    30   1
    31    28    29   2
    32    28    34  am
    33    30    31   1
    34    31    32   2
    35    31    33  am
    36     3    35   1
    37     3    36   1
    38     3    37   1
    39     4    38   1
    40     5    39   1
    41     8    40   1
    42     8    41   1
    43    10    42   1
    44    11    43   1
    45    12    44   1
    46    13    45   1
    47    20    46   1
    48    20    47   1
    49    21    48   1
    50    21    49   1
    51    25    50   1
    52    26    51   1
    53    27    52   1
    54    30    53   1
    55    30    54   1
    56    33    55   1
    57    33    56   1
    58    34    57   1
    59    34    58   1
@<TRIPOS>SUBSTRUCTURE
     1  ACT      1

