@<TRIPOS>MOLECULE
3ov1_ligand_016
    58    59
SMALL
GAST_HUCK
****
This file was generated by PARSER (from files_GN.cpp)

@<TRIPOS>ATOM
      1 C         -16.1946   14.8886    2.2861 C.2         1 ACT       0.1753
      2 O         -17.3304   14.9957    2.7350 O.2         1 ACT      -0.3972
      3 CH3       -15.3449   16.0549    2.3389 C.3         1 ACT       0.0258
      4 N         -15.7252   13.7376    1.8176 N.am        1 ACT      -0.2628
      5 CA        -16.3853   12.4641    1.7023 C.3         1 ACT       0.1465
      6 C         -17.4897   12.5367    0.7451 C.2         1 ACT       0.2045
      7 O         -18.6104   12.8476    1.1291 O.2         1 ACT      -0.3944
      8 CB        -16.7486   11.7131    3.0385 C.3         1 ACT       0.0400
      9 CG        -16.4020   12.4149    4.3043 C.ar        1 ACT      -0.0004
     10 CD1       -17.3952   12.8242    5.2264 C.ar        1 ACT      -0.0239
     11 CD2       -15.0491   12.7050    4.5980 C.ar        1 ACT      -0.0239
     12 CE1       -17.0436   13.5363    6.3878 C.ar        1 ACT       0.0115
     13 CE2       -14.6999   13.4188    5.7592 C.ar        1 ACT       0.0115
     14 CZ        -15.6985   13.8768    6.6435 C.ar        1 ACT       0.1728
     15 OH        -15.3545   14.5690    7.7738 O.3         1 ACT      -0.2040
     16 P         -15.1029   16.0887    7.5097 P.3         1 ACT       0.1348
     17 O1P       -16.2649   16.7610    6.9854 O.co2       1 ACT      -0.6653
     18 O2P       -14.7886   16.7154    8.7696 O.co2       1 ACT      -0.6653
     19 O3P       -13.9800   16.3307    6.6337 O.co2       1 ACT      -0.6653
     20 CB        -17.6597   13.0417   -2.9061 C.3         1 ACT      -0.0184
     21 CG        -17.9128   11.5330   -2.8311 C.3         1 ACT      -0.0184
     22 CA        -18.2191   12.4196   -1.6055 C.3         1 ACT       0.1329
     23 C         -19.6361   12.5288   -1.3041 C.2         1 ACT       0.2267
     24 O         -20.1892   13.6142   -1.4141 O.2         1 ACT      -0.3419
     25 N         -17.2661   12.2934   -0.5468 N.am        1 ACT      -0.2738
     26 N         -20.2866   11.4498   -0.8775 N.am        1 ACT      -0.2608
     27 CA        -21.6831   11.3096   -0.5482 C.3         1 ACT       0.1474
     28 C         -22.4944   11.2587   -1.7650 C.2         1 ACT       0.2017
     29 O         -22.9582   10.1971   -2.1612 O.2         1 ACT      -0.3945
     30 CB        -22.2030   12.3414    0.5079 C.3         1 ACT       0.0774
     31 CG        -21.8525   11.9828    1.8756 C.2         1 ACT       0.1781
     32 OD1       -20.7467   12.2525    2.3265 O.2         1 ACT      -0.3970
     33 ND2       -22.7247   11.3936    2.6647 N.am        1 ACT      -0.3007
     34 N         -22.7819   12.3419   -2.4590 N.am        1 ACT      -0.2988
     35 H1        -14.3490   15.8489    1.9355 H           1 ACT       0.0467
     36 H2        -15.2357   16.3799    3.3780 H           1 ACT       0.0467
     37 H3        -15.7881   16.8685    1.7585 H           1 ACT       0.0467
     38 H4        -14.8074   13.7672    1.4974 H           1 ACT       0.1885
     39 H5        -15.6119   11.8468    1.2421 H           1 ACT       0.0840
     40 H6        -16.2251   10.7561    3.0626 H           1 ACT       0.0584
     41 H7        -17.8092   11.4492    3.0448 H           1 ACT       0.0584
     42 H8        -18.3839   12.6270    5.0448 H           1 ACT       0.0703
     43 H9        -14.3064   12.4042    3.9626 H           1 ACT       0.0703
     44 H10       -17.7710   13.8248    7.0421 H           1 ACT       0.0736
     45 H11       -13.7176   13.6337    5.9386 H           1 ACT       0.0736
     46 H12       -18.3479   13.5952   -3.5458 H           1 ACT       0.0276
     47 H13       -16.6109   13.3420   -2.8820 H           1 ACT       0.0276
     48 H14       -17.0104   10.9230   -2.7900 H           1 ACT       0.0276
     49 H15       -18.7452   11.1881   -3.4501 H           1 ACT       0.0276
     50 H16       -16.3582   12.0655   -0.8073 H           1 ACT       0.1839
     51 H17       -19.7550   10.6432   -0.7835 H           1 ACT       0.1891
     52 H18       -21.7614   10.3161   -0.0903 H           1 ACT       0.0828
     53 H19       -23.2930   12.4146    0.4217 H           1 ACT       0.0551
     54 H20       -21.7982   13.3409    0.3024 H           1 ACT       0.0551
     55 H21       -22.4762   11.1608    3.5758 H           1 ACT       0.1814
     56 H22       -23.6241   11.2096    2.3338 H           1 ACT       0.1814
     57 H23       -23.3274   12.2868   -3.2660 H           1 ACT       0.1815
     58 H24       -22.4531   13.2092   -2.1695 H           1 ACT       0.1815
@<TRIPOS>BOND
     1     1     2   2
     2     1     3   1
     3     4     1  am
     4     5     4   1
     5     6     5   1
     6     5     8   1
     7     6     7   2
     8    25     6  am
     9     8     9   1
    10     9    10  ar
    11     9    11  ar
    12    10    12  ar
    13    11    13  ar
    14    12    14  ar
    15    13    14  ar
    16    14    15   1
    17    15    16   1
    18    16    17  ar
    19    16    18  ar
    20    16    19  ar
    21    21    20   1
    22    22    20   1
    23    22    21   1
    24    22    23   1
    25    22    25   1
    26    23    24   2
    27    23    26  am
    28    26    27   1
    29    27    28   1
    30    27    30   1
    31    28    29   2
    32    28    34  am
    33    30    31   1
    34    31    32   2
    35    31    33  am
    36     3    35   1
    37     3    36   1
    38     3    37   1
    39     4    38   1
    40     5    39   1
    41     8    40   1
    42     8    41   1
    43    10    42   1
    44    11    43   1
    45    12    44   1
    46    13    45   1
    47    20    46   1
    48    20    47   1
    49    21    48   1
    50    21    49   1
    51    25    50   1
    52    26    51   1
    53    27    52   1
    54    30    53   1
    55    30    54   1
    56    33    55   1
    57    33    56   1
    58    34    57   1
    59    34    58   1
@<TRIPOS>SUBSTRUCTURE
     1  ACT      1

