@<TRIPOS>MOLECULE
3ov1_ligand_079
    58    59
SMALL
GAST_HUCK
****
This file was generated by PARSER (from files_GN.cpp)

@<TRIPOS>ATOM
      1 C         -10.5164    9.9739   -6.5146 C.2         1 ACT       0.1753
      2 O         -10.5945   10.2765   -7.7011 O.2         1 ACT      -0.3972
      3 CH3       -10.6803    8.5766   -6.1748 C.3         1 ACT       0.0258
      4 N         -10.2680   10.8784   -5.5765 N.am        1 ACT      -0.2628
      5 CA         -9.8963   12.2544   -5.7838 C.3         1 ACT       0.1465
      6 C          -8.5438   12.4330   -5.2473 C.2         1 ACT       0.2045
      7 O          -8.3222   13.1808   -4.2975 O.2         1 ACT      -0.3944
      8 CB        -10.9755   13.2225   -5.1978 C.3         1 ACT       0.0400
      9 CG        -12.2905   13.3245   -5.9088 C.ar        1 ACT      -0.0004
     10 CD1       -12.3599   13.5868   -7.3024 C.ar        1 ACT      -0.0239
     11 CD2       -13.5031   13.3413   -5.1767 C.ar        1 ACT      -0.0239
     12 CE1       -13.5986   13.8108   -7.9436 C.ar        1 ACT       0.0115
     13 CE2       -14.7330   13.6097   -5.8078 C.ar        1 ACT       0.0115
     14 CZ        -14.7974   13.8095   -7.2020 C.ar        1 ACT       0.1728
     15 OH        -15.9722   14.1399   -7.8304 O.3         1 ACT      -0.2040
     16 P         -16.8608   12.9256   -8.2193 P.3         1 ACT       0.1348
     17 O1P       -17.2751   12.1983   -7.0414 O.co2       1 ACT      -0.6653
     18 O2P       -18.0623   13.4271   -8.8411 O.co2       1 ACT      -0.6653
     19 O3P       -16.2319   12.0118   -9.1466 O.co2       1 ACT      -0.6653
     20 CB         -5.3607   11.9614   -7.0357 C.3         1 ACT      -0.0184
     21 CG         -5.6465   13.3655   -6.4976 C.3         1 ACT      -0.0184
     22 CA         -6.1466   12.1321   -5.7190 C.3         1 ACT       0.1329
     23 C          -5.4313   11.6318   -4.5527 C.2         1 ACT       0.2267
     24 O          -4.4525   12.2449   -4.1237 O.2         1 ACT      -0.3419
     25 N          -7.5390   11.8447   -5.8845 N.am        1 ACT      -0.2738
     26 N          -5.7947   10.4751   -4.0135 N.am        1 ACT      -0.2608
     27 CA         -5.0823    9.7106   -3.0212 C.3         1 ACT       0.1474
     28 C          -5.6701    8.3752   -3.0441 C.2         1 ACT       0.2017
     29 O          -5.1686    7.4869   -3.7208 O.2         1 ACT      -0.3945
     30 CB         -5.0803   10.3799   -1.6043 C.3         1 ACT       0.0774
     31 CG         -4.1989    9.7435   -0.6357 C.2         1 ACT       0.1781
     32 OD1        -3.2384   10.3454   -0.1726 O.2         1 ACT      -0.3970
     33 ND2        -4.4059    8.5163   -0.1967 N.am        1 ACT      -0.3007
     34 N          -6.8126    8.0936   -2.4529 N.am        1 ACT      -0.2988
     35 H1        -10.5421    8.3993   -5.1052 H           1 ACT       0.0467
     36 H2         -9.9424    7.9812   -6.7177 H           1 ACT       0.0467
     37 H3        -11.6799    8.2385   -6.4584 H           1 ACT       0.0467
     38 H4        -10.2574   10.5599   -4.6548 H           1 ACT       0.1885
     39 H5         -9.8130   12.4836   -6.8469 H           1 ACT       0.0840
     40 H6        -10.5702   14.2431   -5.1902 H           1 ACT       0.0584
     41 H7        -11.1403   12.9453   -4.1465 H           1 ACT       0.0584
     42 H8        -11.5079   13.6481   -7.8641 H           1 ACT       0.0703
     43 H9        -13.4934   13.2108   -4.1654 H           1 ACT       0.0703
     44 H10       -13.6222   13.9997   -8.9469 H           1 ACT       0.0736
     45 H11       -15.5868   13.6612   -5.2486 H           1 ACT       0.0736
     46 H12        -4.3071   11.6774   -6.9874 H           1 ACT       0.0276
     47 H13        -5.9209   11.7093   -7.9385 H           1 ACT       0.0276
     48 H14        -6.3922   13.9306   -7.0614 H           1 ACT       0.0276
     49 H15        -4.7763   13.8976   -6.1115 H           1 ACT       0.0276
     50 H16        -7.7745   11.2684   -6.6290 H           1 ACT       0.1839
     51 H17        -6.5693   10.0403   -4.4138 H           1 ACT       0.1891
     52 H18        -4.0418    9.6331   -3.3506 H           1 ACT       0.0828
     53 H19        -6.0916   10.3889   -1.2022 H           1 ACT       0.0551
     54 H20        -4.7815   11.4275   -1.7117 H           1 ACT       0.0551
     55 H21        -3.7943    8.1315    0.4536 H           1 ACT       0.1814
     56 H22        -5.1688    7.9950   -0.5067 H           1 ACT       0.1814
     57 H23        -7.1941    7.2074   -2.5404 H           1 ACT       0.1815
     58 H24        -7.2722    8.7655   -1.9264 H           1 ACT       0.1815
@<TRIPOS>BOND
     1     1     2   2
     2     1     3   1
     3     4     1  am
     4     5     4   1
     5     6     5   1
     6     5     8   1
     7     6     7   2
     8    25     6  am
     9     8     9   1
    10     9    10  ar
    11     9    11  ar
    12    10    12  ar
    13    11    13  ar
    14    12    14  ar
    15    13    14  ar
    16    14    15   1
    17    15    16   1
    18    16    17  ar
    19    16    18  ar
    20    16    19  ar
    21    21    20   1
    22    22    20   1
    23    22    21   1
    24    22    23   1
    25    22    25   1
    26    23    24   2
    27    23    26  am
    28    26    27   1
    29    27    28   1
    30    27    30   1
    31    28    29   2
    32    28    34  am
    33    30    31   1
    34    31    32   2
    35    31    33  am
    36     3    35   1
    37     3    36   1
    38     3    37   1
    39     4    38   1
    40     5    39   1
    41     8    40   1
    42     8    41   1
    43    10    42   1
    44    11    43   1
    45    12    44   1
    46    13    45   1
    47    20    46   1
    48    20    47   1
    49    21    48   1
    50    21    49   1
    51    25    50   1
    52    26    51   1
    53    27    52   1
    54    30    53   1
    55    30    54   1
    56    33    55   1
    57    33    56   1
    58    34    57   1
    59    34    58   1
@<TRIPOS>SUBSTRUCTURE
     1  ACT      1

