@<TRIPOS>MOLECULE
3ov1_ligand_022
    58    59
SMALL
GAST_HUCK
****
This file was generated by PARSER (from files_GN.cpp)

@<TRIPOS>ATOM
      1 C         -12.9155   12.9017   -2.6389 C.2         1 ACT       0.1753
      2 O         -13.7275   11.9933   -2.5170 O.2         1 ACT      -0.3972
      3 CH3       -12.6695   13.3921   -3.9758 C.3         1 ACT       0.0258
      4 N         -12.2366   13.3745   -1.5999 N.am        1 ACT      -0.2628
      5 CA        -12.2929   12.8842   -0.2439 C.3         1 ACT       0.1465
      6 C         -12.3505   14.0335    0.6565 C.2         1 ACT       0.2045
      7 O         -13.3241   14.1896    1.3848 O.2         1 ACT      -0.3944
      8 CB        -11.0979   11.9255    0.0922 C.3         1 ACT       0.0400
      9 CG        -10.6822   11.0382   -1.0383 C.ar        1 ACT      -0.0004
     10 CD1        -9.6866   11.4680   -1.9491 C.ar        1 ACT      -0.0239
     11 CD2       -11.2997    9.7847   -1.2656 C.ar        1 ACT      -0.0239
     12 CE1        -9.3242   10.6771   -3.0545 C.ar        1 ACT       0.0115
     13 CE2       -10.9419    8.9943   -2.3745 C.ar        1 ACT       0.0115
     14 CZ         -9.9680    9.4429   -3.2864 C.ar        1 ACT       0.1728
     15 OH         -9.5584    8.5991   -4.2811 O.3         1 ACT      -0.2040
     16 P         -10.0963    8.9295   -5.6983 P.3         1 ACT       0.1348
     17 O1P        -9.6869   10.2323   -6.1551 O.co2       1 ACT      -0.6653
     18 O2P        -9.5017    7.9544   -6.5780 O.co2       1 ACT      -0.6653
     19 O3P       -11.5270    8.7741   -5.7936 O.co2       1 ACT      -0.6653
     20 CB        -10.6683   17.2676    0.7726 C.3         1 ACT      -0.0184
     21 CG        -12.1388   17.2472    1.1993 C.3         1 ACT      -0.0184
     22 CA        -11.2318   16.0391    1.5199 C.3         1 ACT       0.1329
     23 C         -10.6956   15.8399    2.8497 C.2         1 ACT       0.2267
     24 O         -11.3809   16.1430    3.8190 O.2         1 ACT      -0.3419
     25 N         -11.3368   14.8886    0.6829 N.am        1 ACT      -0.2738
     26 N          -9.5040   15.2615    2.9774 N.am        1 ACT      -0.2608
     27 CA         -8.8041   14.9451    4.1943 C.3         1 ACT       0.1474
     28 C          -7.5619   15.7041    4.2534 C.2         1 ACT       0.2017
     29 O          -6.8715   15.8657    3.2570 O.2         1 ACT      -0.3945
     30 CB         -8.5001   13.4167    4.2806 C.3         1 ACT       0.0774
     31 CG         -9.6885   12.5824    4.3106 C.2         1 ACT       0.1781
     32 OD1        -9.9369   11.8206    3.3869 O.2         1 ACT      -0.3970
     33 ND2       -10.4989   12.5806    5.3476 N.am        1 ACT      -0.3007
     34 N          -7.0795   16.1204    5.4027 N.am        1 ACT      -0.2988
     35 H1        -11.9585   14.2224   -3.9842 H           1 ACT       0.0467
     36 H2        -13.6071   13.7346   -4.4183 H           1 ACT       0.0467
     37 H3        -12.2657   12.5854   -4.5918 H           1 ACT       0.0467
     38 H4        -11.5705   14.0536   -1.7865 H           1 ACT       0.1885
     39 H5        -13.2061   12.2943   -0.1084 H           1 ACT       0.0840
     40 H6        -11.3813   11.3088    0.9518 H           1 ACT       0.0584
     41 H7        -10.2259   12.5016    0.4200 H           1 ACT       0.0584
     42 H8         -9.2160   12.3685   -1.8107 H           1 ACT       0.0703
     43 H9        -12.0034    9.4324   -0.6191 H           1 ACT       0.0703
     44 H10        -8.5879   11.0002   -3.6848 H           1 ACT       0.0736
     45 H11       -11.3858    8.0816   -2.5180 H           1 ACT       0.0736
     46 H12       -10.0500   17.9771    1.3300 H           1 ACT       0.0276
     47 H13       -10.5125   17.1734   -0.3040 H           1 ACT       0.0276
     48 H14       -12.8492   17.1233    0.3805 H           1 ACT       0.0276
     49 H15       -12.3872   17.9297    2.0156 H           1 ACT       0.0276
     50 H16       -10.5820   14.7044    0.1013 H           1 ACT       0.1839
     51 H17        -9.0573   15.0135    2.1512 H           1 ACT       0.1891
     52 H18        -9.4118   15.2143    5.0646 H           1 ACT       0.0828
     53 H19        -7.9265   13.2090    5.1910 H           1 ACT       0.0551
     54 H20        -7.8694   13.1285    3.4311 H           1 ACT       0.0551
     55 H21       -11.2738   11.9966    5.3557 H           1 ACT       0.1814
     56 H22       -10.3159   13.1486    6.1131 H           1 ACT       0.1814
     57 H23        -6.2248   16.5781    5.4339 H           1 ACT       0.1815
     58 H24        -7.5674   15.9518    6.2236 H           1 ACT       0.1815
@<TRIPOS>BOND
     1     1     2   2
     2     1     3   1
     3     4     1  am
     4     5     4   1
     5     6     5   1
     6     5     8   1
     7     6     7   2
     8    25     6  am
     9     8     9   1
    10     9    10  ar
    11     9    11  ar
    12    10    12  ar
    13    11    13  ar
    14    12    14  ar
    15    13    14  ar
    16    14    15   1
    17    15    16   1
    18    16    17  ar
    19    16    18  ar
    20    16    19  ar
    21    21    20   1
    22    22    20   1
    23    22    21   1
    24    22    23   1
    25    22    25   1
    26    23    24   2
    27    23    26  am
    28    26    27   1
    29    27    28   1
    30    27    30   1
    31    28    29   2
    32    28    34  am
    33    30    31   1
    34    31    32   2
    35    31    33  am
    36     3    35   1
    37     3    36   1
    38     3    37   1
    39     4    38   1
    40     5    39   1
    41     8    40   1
    42     8    41   1
    43    10    42   1
    44    11    43   1
    45    12    44   1
    46    13    45   1
    47    20    46   1
    48    20    47   1
    49    21    48   1
    50    21    49   1
    51    25    50   1
    52    26    51   1
    53    27    52   1
    54    30    53   1
    55    30    54   1
    56    33    55   1
    57    33    56   1
    58    34    57   1
    59    34    58   1
@<TRIPOS>SUBSTRUCTURE
     1  ACT      1

