@<TRIPOS>MOLECULE
3ov1_ligand_095
    58    59
SMALL
GAST_HUCK
****
This file was generated by PARSER (from files_GN.cpp)

@<TRIPOS>ATOM
      1 C         -15.5166   12.0648    2.3981 C.2         1 ACT       0.1753
      2 O         -15.6366   12.0319    1.1789 O.2         1 ACT      -0.3972
      3 CH3       -16.4738   11.3287    3.1916 C.3         1 ACT       0.0258
      4 N         -14.5318   12.7291    2.9903 N.am        1 ACT      -0.2628
      5 CA        -13.5216   13.5201    2.3424 C.3         1 ACT       0.1465
      6 C         -12.3864   13.6840    3.2558 C.2         1 ACT       0.2045
      7 O         -12.0717   14.7987    3.6518 O.2         1 ACT      -0.3944
      8 CB        -14.1177   14.8479    1.7530 C.3         1 ACT       0.0400
      9 CG        -14.8757   15.6993    2.7210 C.ar        1 ACT      -0.0004
     10 CD1       -14.2588   16.7930    3.3747 C.ar        1 ACT      -0.0239
     11 CD2       -16.2277   15.4168    3.0315 C.ar        1 ACT      -0.0239
     12 CE1       -14.9466   17.5342    4.3573 C.ar        1 ACT       0.0115
     13 CE2       -16.9255   16.1755    3.9913 C.ar        1 ACT       0.0115
     14 CZ        -16.2949   17.2416    4.6632 C.ar        1 ACT       0.1728
     15 OH        -16.9916   17.9042    5.6448 O.3         1 ACT      -0.2040
     16 P         -17.3817   19.3798    5.3152 P.3         1 ACT       0.1348
     17 O1P       -16.2329   20.2428    5.4357 O.co2       1 ACT      -0.6653
     18 O2P       -17.9513   19.5380    4.0021 O.co2       1 ACT      -0.6653
     19 O3P       -18.3497   19.8531    6.2699 O.co2       1 ACT      -0.6653
     20 CB        -10.7066   12.0024    5.8650 C.3         1 ACT      -0.0184
     21 CG         -9.9918   11.2124    4.7670 C.3         1 ACT      -0.0184
     22 CA        -10.5105   12.6399    4.4725 C.3         1 ACT       0.1329
     23 C          -9.4261   13.5755    4.2042 C.2         1 ACT       0.2267
     24 O          -8.9540   13.5727    3.0747 O.2         1 ACT      -0.3419
     25 N         -11.6626   12.6270    3.6111 N.am        1 ACT      -0.2738
     26 N          -9.0268   14.4389    5.1354 N.am        1 ACT      -0.2608
     27 CA         -8.1219   15.5589    5.0123 C.3         1 ACT       0.1474
     28 C          -7.0724   15.4398    4.0005 C.2         1 ACT       0.2017
     29 O          -6.8953   16.3258    3.1760 O.2         1 ACT      -0.3945
     30 CB         -7.5488   15.9633    6.4119 C.3         1 ACT       0.0774
     31 CG         -6.8787   14.9216    7.1776 C.2         1 ACT       0.1781
     32 OD1        -5.9316   14.3163    6.7013 O.2         1 ACT      -0.3970
     33 ND2        -7.1693   14.6778    8.4403 N.am        1 ACT      -0.3007
     34 N          -6.2822   14.3942    3.9298 N.am        1 ACT      -0.2988
     35 H1        -16.3209   11.4881    4.2615 H           1 ACT       0.0467
     36 H2        -16.3733   10.2616    2.9821 H           1 ACT       0.0467
     37 H3        -17.4907   11.6446    2.9456 H           1 ACT       0.0467
     38 H4        -14.4743   12.6490    3.9545 H           1 ACT       0.1885
     39 H5        -13.1355   12.9563    1.4848 H           1 ACT       0.0840
     40 H6        -14.7820   14.5987    0.9189 H           1 ACT       0.0584
     41 H7        -13.3028   15.4246    1.3081 H           1 ACT       0.0584
     42 H8        -13.2941   17.0463    3.1504 H           1 ACT       0.0703
     43 H9        -16.7200   14.6565    2.5583 H           1 ACT       0.0703
     44 H10       -14.4606   18.2788    4.8597 H           1 ACT       0.0736
     45 H11       -17.8920   15.9350    4.2245 H           1 ACT       0.0736
     46 H12       -10.0618   12.3463    6.6757 H           1 ACT       0.0276
     47 H13       -11.7161   11.6630    6.1064 H           1 ACT       0.0276
     48 H14       -10.5627   10.3733    4.3667 H           1 ACT       0.0276
     49 H15        -8.9270   11.0686    4.9658 H           1 ACT       0.0276
     50 H16       -11.9367   11.7658    3.2559 H           1 ACT       0.1839
     51 H17        -9.4810   14.3709    5.9881 H           1 ACT       0.1891
     52 H18        -8.7572   16.3979    4.7065 H           1 ACT       0.0828
     53 H19        -8.3791   16.3600    7.0040 H           1 ACT       0.0551
     54 H20        -6.8422   16.7888    6.2824 H           1 ACT       0.0551
     55 H21        -6.6550   14.0112    8.9357 H           1 ACT       0.1814
     56 H22        -7.8381   15.2110    8.9059 H           1 ACT       0.1814
     57 H23        -5.5887   14.3551    3.2518 H           1 ACT       0.1815
     58 H24        -6.4019   13.6513    4.5368 H           1 ACT       0.1815
@<TRIPOS>BOND
     1     1     2   2
     2     1     3   1
     3     4     1  am
     4     5     4   1
     5     6     5   1
     6     5     8   1
     7     6     7   2
     8    25     6  am
     9     8     9   1
    10     9    10  ar
    11     9    11  ar
    12    10    12  ar
    13    11    13  ar
    14    12    14  ar
    15    13    14  ar
    16    14    15   1
    17    15    16   1
    18    16    17  ar
    19    16    18  ar
    20    16    19  ar
    21    21    20   1
    22    22    20   1
    23    22    21   1
    24    22    23   1
    25    22    25   1
    26    23    24   2
    27    23    26  am
    28    26    27   1
    29    27    28   1
    30    27    30   1
    31    28    29   2
    32    28    34  am
    33    30    31   1
    34    31    32   2
    35    31    33  am
    36     3    35   1
    37     3    36   1
    38     3    37   1
    39     4    38   1
    40     5    39   1
    41     8    40   1
    42     8    41   1
    43    10    42   1
    44    11    43   1
    45    12    44   1
    46    13    45   1
    47    20    46   1
    48    20    47   1
    49    21    48   1
    50    21    49   1
    51    25    50   1
    52    26    51   1
    53    27    52   1
    54    30    53   1
    55    30    54   1
    56    33    55   1
    57    33    56   1
    58    34    57   1
    59    34    58   1
@<TRIPOS>SUBSTRUCTURE
     1  ACT      1

