@<TRIPOS>MOLECULE
3ov1_ligand_064
    58    59
SMALL
GAST_HUCK
****
This file was generated by PARSER (from files_GN.cpp)

@<TRIPOS>ATOM
      1 C         -10.2159    9.1455   -4.0207 C.2         1 ACT       0.1753
      2 O          -9.6131    8.2871   -4.6574 O.2         1 ACT      -0.3972
      3 CH3       -10.4001    8.9330   -2.6027 C.3         1 ACT       0.0258
      4 N         -10.7511   10.2090   -4.6133 N.am        1 ACT      -0.2628
      5 CA        -10.7202   10.5412   -6.0193 C.3         1 ACT       0.1465
      6 C         -11.0438    9.4019   -6.8958 C.2         1 ACT       0.2045
      7 O         -11.5576    8.4009   -6.4033 O.2         1 ACT      -0.3944
      8 CB         -9.3972   11.2904   -6.3609 C.3         1 ACT       0.0400
      9 CG         -9.1730   12.5700   -5.6247 C.ar        1 ACT      -0.0004
     10 CD1        -7.9494   12.8263   -4.9569 C.ar        1 ACT      -0.0239
     11 CD2       -10.1527   13.5917   -5.6450 C.ar        1 ACT      -0.0239
     12 CE1        -7.7165   14.0661   -4.3268 C.ar        1 ACT       0.0115
     13 CE2        -9.9275   14.8218   -4.9992 C.ar        1 ACT       0.0115
     14 CZ         -8.7187   15.0603   -4.3186 C.ar        1 ACT       0.1728
     15 OH         -8.5047   16.2962   -3.7611 O.3         1 ACT      -0.2040
     16 P          -8.6823   16.3443   -2.2172 P.3         1 ACT       0.1348
     17 O1P        -9.8280   15.6164   -1.7266 O.co2       1 ACT      -0.6653
     18 O2P        -7.4908   15.8888   -1.5408 O.co2       1 ACT      -0.6653
     19 O3P        -8.8648   17.7250   -1.8407 O.co2       1 ACT      -0.6653
     20 CB        -10.0723    8.1246  -10.1322 C.3         1 ACT      -0.0184
     21 CG        -10.4319    7.1212   -9.0301 C.3         1 ACT      -0.0184
     22 CA        -11.2327    8.4395   -9.1632 C.3         1 ACT       0.1329
     23 C         -12.5796    8.4276   -9.7343 C.2         1 ACT       0.2267
     24 O         -13.3501    9.3272   -9.4195 O.2         1 ACT      -0.3419
     25 N         -10.8913    9.4644   -8.2164 N.am        1 ACT      -0.2738
     26 N         -12.9805    7.4691  -10.5686 N.am        1 ACT      -0.2608
     27 CA        -14.2657    7.3088  -11.1899 C.3         1 ACT       0.1474
     28 C         -14.1928    6.1051  -12.0094 C.2         1 ACT       0.2017
     29 O         -14.8879    5.1323  -11.7538 O.2         1 ACT      -0.3945
     30 CB        -14.7033    8.5599  -12.0167 C.3         1 ACT       0.0774
     31 CG        -15.9611    8.3909  -12.7317 C.2         1 ACT       0.1781
     32 OD1       -16.0605    8.7090  -13.9063 O.2         1 ACT      -0.3970
     33 ND2       -17.0203    7.8753  -12.1430 N.am        1 ACT      -0.3007
     34 N         -13.4017    6.0222  -13.0564 N.am        1 ACT      -0.2988
     35 H1        -10.9161    9.7754   -2.1364 H           1 ACT       0.0467
     36 H2         -9.4342    8.8015   -2.1074 H           1 ACT       0.0467
     37 H3        -10.9998    8.0337   -2.4445 H           1 ACT       0.0467
     38 H4        -11.2419   10.8171   -4.0351 H           1 ACT       0.1885
     39 H5        -11.5384   11.2450   -6.1801 H           1 ACT       0.0840
     40 H6         -9.3778   11.5397   -7.4242 H           1 ACT       0.0584
     41 H7         -8.5643   10.6028   -6.1767 H           1 ACT       0.0584
     42 H8         -7.2074   12.1247   -4.9451 H           1 ACT       0.0703
     43 H9        -11.0334   13.4568   -6.1450 H           1 ACT       0.0703
     44 H10        -6.8166   14.2419   -3.8751 H           1 ACT       0.0736
     45 H11       -10.6458   15.5512   -5.0369 H           1 ACT       0.0736
     46 H12       -10.3073    7.7984  -11.1471 H           1 ACT       0.0276
     47 H13        -9.1454    8.6729   -9.9792 H           1 ACT       0.0276
     48 H14        -9.7127    7.0673   -8.2075 H           1 ACT       0.0276
     49 H15       -10.9081    6.1996   -9.3725 H           1 ACT       0.0276
     50 H16       -10.5447   10.2906   -8.5885 H           1 ACT       0.1839
     51 H17       -12.3239    6.7763  -10.7669 H           1 ACT       0.1891
     52 H18       -14.9963    7.1533  -10.3867 H           1 ACT       0.0828
     53 H19       -13.9076    8.8145  -12.7222 H           1 ACT       0.0551
     54 H20       -14.8236    9.4155  -11.3521 H           1 ACT       0.0551
     55 H21       -17.8435    7.7613  -12.6442 H           1 ACT       0.1814
     56 H22       -16.9824    7.6080  -11.2135 H           1 ACT       0.1814
     57 H23       -13.3775    5.2067  -13.5841 H           1 ACT       0.1815
     58 H24       -12.8325    6.7681  -13.3043 H           1 ACT       0.1815
@<TRIPOS>BOND
     1     1     2   2
     2     1     3   1
     3     4     1  am
     4     5     4   1
     5     6     5   1
     6     5     8   1
     7     6     7   2
     8    25     6  am
     9     8     9   1
    10     9    10  ar
    11     9    11  ar
    12    10    12  ar
    13    11    13  ar
    14    12    14  ar
    15    13    14  ar
    16    14    15   1
    17    15    16   1
    18    16    17  ar
    19    16    18  ar
    20    16    19  ar
    21    21    20   1
    22    22    20   1
    23    22    21   1
    24    22    23   1
    25    22    25   1
    26    23    24   2
    27    23    26  am
    28    26    27   1
    29    27    28   1
    30    27    30   1
    31    28    29   2
    32    28    34  am
    33    30    31   1
    34    31    32   2
    35    31    33  am
    36     3    35   1
    37     3    36   1
    38     3    37   1
    39     4    38   1
    40     5    39   1
    41     8    40   1
    42     8    41   1
    43    10    42   1
    44    11    43   1
    45    12    44   1
    46    13    45   1
    47    20    46   1
    48    20    47   1
    49    21    48   1
    50    21    49   1
    51    25    50   1
    52    26    51   1
    53    27    52   1
    54    30    53   1
    55    30    54   1
    56    33    55   1
    57    33    56   1
    58    34    57   1
    59    34    58   1
@<TRIPOS>SUBSTRUCTURE
     1  ACT      1

