@<TRIPOS>MOLECULE
3ov1_ligand_009
    58    59
SMALL
GAST_HUCK
****
This file was generated by PARSER (from files_GN.cpp)

@<TRIPOS>ATOM
      1 C         -16.4278   14.6027    7.1079 C.2         1 ACT       0.1753
      2 O         -16.6833   13.4805    7.5178 O.2         1 ACT      -0.3972
      3 CH3       -15.9159   15.5629    8.0588 C.3         1 ACT       0.0258
      4 N         -16.6304   14.9514    5.8396 N.am        1 ACT      -0.2628
      5 CA        -17.1201   14.0978    4.7924 C.3         1 ACT       0.1465
      6 C         -16.0032   13.4319    4.1422 C.2         1 ACT       0.2045
      7 O         -15.9676   12.2044    4.1587 O.2         1 ACT      -0.3944
      8 CB        -17.9759   14.9140    3.7623 C.3         1 ACT       0.0400
      9 CG        -19.3955   15.1311    4.1670 C.ar        1 ACT      -0.0004
     10 CD1       -19.9508   16.4280    4.2802 C.ar        1 ACT      -0.0239
     11 CD2       -20.2413   14.0180    4.4011 C.ar        1 ACT      -0.0239
     12 CE1       -21.3061   16.6037    4.6272 C.ar        1 ACT       0.0115
     13 CE2       -21.5842   14.1935    4.7650 C.ar        1 ACT       0.0115
     14 CZ        -22.1258   15.4874    4.8935 C.ar        1 ACT       0.1728
     15 OH        -23.4636   15.6031    5.1667 O.3         1 ACT      -0.2040
     16 P         -23.8511   16.1663    6.5599 P.3         1 ACT       0.1348
     17 O1P       -24.4496   17.4619    6.3522 O.co2       1 ACT      -0.6653
     18 O2P       -24.8829   15.3394    7.1404 O.co2       1 ACT      -0.6653
     19 O3P       -22.7872   16.3122    7.5312 O.co2       1 ACT      -0.6653
     20 CB        -12.5889   14.1380    3.2748 C.3         1 ACT      -0.0184
     21 CG        -12.9696   12.6954    3.6142 C.3         1 ACT      -0.0184
     22 CA        -13.9502   13.5698    2.8021 C.3         1 ACT       0.1329
     23 C         -14.1704   13.1872    1.4065 C.2         1 ACT       0.2267
     24 O         -15.2242   12.5949    1.1611 O.2         1 ACT      -0.3419
     25 N         -15.0570   14.1269    3.5174 N.am        1 ACT      -0.2738
     26 N         -13.2996   13.4660    0.4436 N.am        1 ACT      -0.2608
     27 CA        -13.3218   13.2831   -0.9865 C.3         1 ACT       0.1474
     28 C         -14.4962   12.6888   -1.6358 C.2         1 ACT       0.2017
     29 O         -14.9522   13.1708   -2.6685 O.2         1 ACT      -0.3945
     30 CB        -11.9927   12.6031   -1.4630 C.3         1 ACT       0.0774
     31 CG        -11.9282   11.1498   -1.3823 C.2         1 ACT       0.1781
     32 OD1       -12.4070   10.4599   -2.2727 O.2         1 ACT      -0.3970
     33 ND2       -11.3171   10.5274   -0.3991 N.am        1 ACT      -0.3007
     34 N         -15.0320   11.5599   -1.2195 N.am        1 ACT      -0.2988
     35 H1        -15.7337   16.5360    7.5979 H           1 ACT       0.0467
     36 H2        -14.9753   15.1989    8.4817 H           1 ACT       0.0467
     37 H3        -16.6399   15.6940    8.8676 H           1 ACT       0.0467
     38 H4        -16.3697   15.8538    5.5908 H           1 ACT       0.1885
     39 H5        -17.7714   13.3364    5.2347 H           1 ACT       0.0840
     40 H6        -18.0047   14.3848    2.8057 H           1 ACT       0.0584
     41 H7        -17.4806   15.8713    3.5703 H           1 ACT       0.0584
     42 H8        -19.3722   17.2552    4.1029 H           1 ACT       0.0703
     43 H9        -19.8825   13.0646    4.3029 H           1 ACT       0.0703
     44 H10       -21.6894   17.5486    4.6899 H           1 ACT       0.0736
     45 H11       -22.1750   13.3750    4.9270 H           1 ACT       0.0736
     46 H12       -11.7472   14.1944    2.5848 H           1 ACT       0.0276
     47 H13       -12.5918   14.8019    4.1373 H           1 ACT       0.0276
     48 H14       -13.2071   12.5211    4.6659 H           1 ACT       0.0276
     49 H15       -12.4137   11.9253    3.0698 H           1 ACT       0.0276
     50 H16       -15.1412   15.0943    3.5199 H           1 ACT       0.1839
     51 H17       -12.5021   13.9250    0.7504 H           1 ACT       0.1891
     52 H18       -13.2475   14.3049   -1.3622 H           1 ACT       0.0828
     53 H19       -11.1594   13.0225   -0.8910 H           1 ACT       0.0551
     54 H20       -11.7990   12.8831   -2.5046 H           1 ACT       0.0551
     55 H21       -11.2672    9.5593   -0.4035 H           1 ACT       0.1814
     56 H22       -10.9177   11.0350    0.3260 H           1 ACT       0.1814
     57 H23       -15.7653   11.1535   -1.7167 H           1 ACT       0.1815
     58 H24       -14.7025   11.1391   -0.4160 H           1 ACT       0.1815
@<TRIPOS>BOND
     1     1     2   2
     2     1     3   1
     3     4     1  am
     4     5     4   1
     5     6     5   1
     6     5     8   1
     7     6     7   2
     8    25     6  am
     9     8     9   1
    10     9    10  ar
    11     9    11  ar
    12    10    12  ar
    13    11    13  ar
    14    12    14  ar
    15    13    14  ar
    16    14    15   1
    17    15    16   1
    18    16    17  ar
    19    16    18  ar
    20    16    19  ar
    21    21    20   1
    22    22    20   1
    23    22    21   1
    24    22    23   1
    25    22    25   1
    26    23    24   2
    27    23    26  am
    28    26    27   1
    29    27    28   1
    30    27    30   1
    31    28    29   2
    32    28    34  am
    33    30    31   1
    34    31    32   2
    35    31    33  am
    36     3    35   1
    37     3    36   1
    38     3    37   1
    39     4    38   1
    40     5    39   1
    41     8    40   1
    42     8    41   1
    43    10    42   1
    44    11    43   1
    45    12    44   1
    46    13    45   1
    47    20    46   1
    48    20    47   1
    49    21    48   1
    50    21    49   1
    51    25    50   1
    52    26    51   1
    53    27    52   1
    54    30    53   1
    55    30    54   1
    56    33    55   1
    57    33    56   1
    58    34    57   1
    59    34    58   1
@<TRIPOS>SUBSTRUCTURE
     1  ACT      1

