@<TRIPOS>MOLECULE
3ov1_ligand_019
    58    59
SMALL
GAST_HUCK
****
This file was generated by PARSER (from files_GN.cpp)

@<TRIPOS>ATOM
      1 C         -13.9027   13.0325   -2.0115 C.2         1 ACT       0.1753
      2 O         -13.9366   11.9482   -2.5893 O.2         1 ACT      -0.3972
      3 CH3       -14.9465   13.9904   -2.2903 C.3         1 ACT       0.0258
      4 N         -12.8791   13.3622   -1.2364 N.am        1 ACT      -0.2628
      5 CA        -11.7584   12.5394   -0.8460 C.3         1 ACT       0.1465
      6 C         -11.5599   12.5707    0.6030 C.2         1 ACT       0.2045
      7 O         -10.6715   11.8573    1.0745 O.2         1 ACT      -0.3944
      8 CB        -10.4864   12.9870   -1.6559 C.3         1 ACT       0.0400
      9 CG        -10.3830   12.3632   -3.0124 C.ar        1 ACT      -0.0004
     10 CD1       -11.3554   12.6167   -4.0090 C.ar        1 ACT      -0.0239
     11 CD2        -9.3196   11.4829   -3.3403 C.ar        1 ACT      -0.0239
     12 CE1       -11.3204   11.9486   -5.2462 C.ar        1 ACT       0.0115
     13 CE2        -9.2622   10.8470   -4.5911 C.ar        1 ACT       0.0115
     14 CZ        -10.2933   11.0283   -5.5375 C.ar        1 ACT       0.1728
     15 OH        -10.3070   10.4108   -6.7561 O.3         1 ACT      -0.2040
     16 P         -10.6807    8.8941   -6.7401 P.3         1 ACT       0.1348
     17 O1P       -11.2615    8.5352   -8.0117 O.co2       1 ACT      -0.6653
     18 O2P        -9.4889    8.1008   -6.5775 O.co2       1 ACT      -0.6653
     19 O3P       -11.6109    8.5281   -5.6957 O.co2       1 ACT      -0.6653
     20 CB        -11.1416   12.8088    3.6986 C.3         1 ACT      -0.0184
     21 CG        -11.1636   14.2999    3.3548 C.3         1 ACT      -0.0184
     22 CA        -12.2847   13.3724    2.8379 C.3         1 ACT       0.1329
     23 C         -13.5854   13.4896    3.4804 C.2         1 ACT       0.2267
     24 O         -13.8142   14.4285    4.2465 O.2         1 ACT      -0.3419
     25 N         -12.2904   13.3444    1.4048 N.am        1 ACT      -0.2738
     26 N         -14.5159   12.5672    3.2338 N.am        1 ACT      -0.2608
     27 CA        -15.8541   12.4725    3.7546 C.3         1 ACT       0.1474
     28 C         -16.8391   13.1648    2.9300 C.2         1 ACT       0.2017
     29 O         -16.6359   14.2839    2.4844 O.2         1 ACT      -0.3945
     30 CB        -15.9881   12.7458    5.2966 C.3         1 ACT       0.0774
     31 CG        -16.5535   14.0205    5.7113 C.2         1 ACT       0.1781
     32 OD1       -17.6910   14.3248    5.3857 O.2         1 ACT      -0.3970
     33 ND2       -15.9244   14.8388    6.5301 N.am        1 ACT      -0.3007
     34 N         -18.0358   12.6482    2.7184 N.am        1 ACT      -0.2988
     35 H1        -14.8140   14.9149   -1.7195 H           1 ACT       0.0467
     36 H2        -15.9149   13.5613   -2.0285 H           1 ACT       0.0467
     37 H3        -14.9482   14.2411   -3.3532 H           1 ACT       0.0467
     38 H4        -12.8846   14.2627   -0.8734 H           1 ACT       0.1885
     39 H5        -11.9545   11.4857   -1.0925 H           1 ACT       0.0840
     40 H6         -9.5887   12.7430   -1.0751 H           1 ACT       0.0584
     41 H7        -10.4829   14.0772   -1.7647 H           1 ACT       0.0584
     42 H8        -12.1053   13.2907   -3.8406 H           1 ACT       0.0703
     43 H9         -8.5786   11.2968   -2.6553 H           1 ACT       0.0703
     44 H10       -12.0567   12.1245   -5.9338 H           1 ACT       0.0736
     45 H11        -8.4864   10.2152   -4.8004 H           1 ACT       0.0736
     46 H12       -11.3474   12.5867    4.7571 H           1 ACT       0.0276
     47 H13       -10.3503   12.2383    3.1984 H           1 ACT       0.0276
     48 H14       -10.3650   14.5852    2.6544 H           1 ACT       0.0276
     49 H15       -11.3501   14.9453    4.2253 H           1 ACT       0.0276
     50 H16       -12.9273   13.9474    0.9862 H           1 ACT       0.1839
     51 H17       -14.2764   11.8781    2.5793 H           1 ACT       0.1891
     52 H18       -16.0740   11.4044    3.6366 H           1 ACT       0.0828
     53 H19       -14.9968   12.6261    5.7464 H           1 ACT       0.0551
     54 H20       -16.6163   11.9652    5.7323 H           1 ACT       0.0551
     55 H21       -16.3560   15.6536    6.8221 H           1 ACT       0.1814
     56 H22       -15.0378   14.6243    6.8472 H           1 ACT       0.1814
     57 H23       -18.6902   13.1403    2.2018 H           1 ACT       0.1815
     58 H24       -18.2605   11.7749    3.0766 H           1 ACT       0.1815
@<TRIPOS>BOND
     1     1     2   2
     2     1     3   1
     3     4     1  am
     4     5     4   1
     5     6     5   1
     6     5     8   1
     7     6     7   2
     8    25     6  am
     9     8     9   1
    10     9    10  ar
    11     9    11  ar
    12    10    12  ar
    13    11    13  ar
    14    12    14  ar
    15    13    14  ar
    16    14    15   1
    17    15    16   1
    18    16    17  ar
    19    16    18  ar
    20    16    19  ar
    21    21    20   1
    22    22    20   1
    23    22    21   1
    24    22    23   1
    25    22    25   1
    26    23    24   2
    27    23    26  am
    28    26    27   1
    29    27    28   1
    30    27    30   1
    31    28    29   2
    32    28    34  am
    33    30    31   1
    34    31    32   2
    35    31    33  am
    36     3    35   1
    37     3    36   1
    38     3    37   1
    39     4    38   1
    40     5    39   1
    41     8    40   1
    42     8    41   1
    43    10    42   1
    44    11    43   1
    45    12    44   1
    46    13    45   1
    47    20    46   1
    48    20    47   1
    49    21    48   1
    50    21    49   1
    51    25    50   1
    52    26    51   1
    53    27    52   1
    54    30    53   1
    55    30    54   1
    56    33    55   1
    57    33    56   1
    58    34    57   1
    59    34    58   1
@<TRIPOS>SUBSTRUCTURE
     1  ACT      1

