@<TRIPOS>MOLECULE
3ov1_ligand_033
    58    59
SMALL
GAST_HUCK
****
This file was generated by PARSER (from files_GN.cpp)

@<TRIPOS>ATOM
      1 C         -13.9001   17.2035    2.4479 C.2         1 ACT       0.1753
      2 O         -14.2939   18.2802    2.8841 O.2         1 ACT      -0.3972
      3 CH3       -14.4174   16.7626    1.1759 C.3         1 ACT       0.0258
      4 N         -13.0506   16.4436    3.1274 N.am        1 ACT      -0.2628
      5 CA        -12.4665   16.7108    4.4186 C.3         1 ACT       0.1465
      6 C         -13.5138   16.7272    5.4410 C.2         1 ACT       0.2045
      7 O         -13.8910   17.7838    5.9437 O.2         1 ACT      -0.3944
      8 CB        -11.5419   17.9717    4.4205 C.3         1 ACT       0.0400
      9 CG        -10.2213   17.7520    3.7676 C.ar        1 ACT      -0.0004
     10 CD1        -9.1236   17.2574    4.5075 C.ar        1 ACT      -0.0239
     11 CD2       -10.0340   18.0805    2.4063 C.ar        1 ACT      -0.0239
     12 CE1        -7.8615   17.1209    3.9047 C.ar        1 ACT       0.0115
     13 CE2        -8.7745   17.9384    1.8051 C.ar        1 ACT       0.0115
     14 CZ         -7.6710   17.4929    2.5610 C.ar        1 ACT       0.1728
     15 OH         -6.4444   17.3389    1.9747 O.3         1 ACT      -0.2040
     16 P          -5.5254   18.5950    2.0732 P.3         1 ACT       0.1348
     17 O1P        -4.2786   18.2766    1.4258 O.co2       1 ACT      -0.6653
     18 O2P        -6.0786   19.7362    1.3884 O.co2       1 ACT      -0.6653
     19 O3P        -5.2179   18.9462    3.4361 O.co2       1 ACT      -0.6653
     20 CB        -14.6509   15.5321    8.1887 C.3         1 ACT      -0.0184
     21 CG        -15.8525   16.3141    7.6422 C.3         1 ACT      -0.0184
     22 CA        -15.1336   15.2839    6.7371 C.3         1 ACT       0.1329
     23 C         -15.9033   14.0732    6.4560 C.2         1 ACT       0.2267
     24 O         -16.3693   13.3944    7.3727 O.2         1 ACT      -0.3419
     25 N         -14.0921   15.5776    5.7822 N.am        1 ACT      -0.2738
     26 N         -16.1532   13.7581    5.1883 N.am        1 ACT      -0.2608
     27 CA        -16.8532   12.6005    4.6843 C.3         1 ACT       0.1474
     28 C         -16.0829   11.8851    3.6700 C.2         1 ACT       0.2017
     29 O         -16.3582   10.7150    3.4304 O.2         1 ACT      -0.3945
     30 CB        -18.2527   13.0317    4.1280 C.3         1 ACT       0.0774
     31 CG        -19.3354   13.1051    5.0971 C.2         1 ACT       0.1781
     32 OD1       -19.1702   12.8464    6.2821 O.2         1 ACT      -0.3970
     33 ND2       -20.5580   13.4065    4.7189 N.am        1 ACT      -0.3007
     34 N         -15.1075   12.4118    2.9551 N.am        1 ACT      -0.2988
     35 H1        -14.0522   15.7695    0.9127 H           1 ACT       0.0467
     36 H2        -14.1084   17.4620    0.4000 H           1 ACT       0.0467
     37 H3        -15.5073   16.7303    1.2114 H           1 ACT       0.0467
     38 H4        -12.7993   15.5987    2.7173 H           1 ACT       0.1885
     39 H5        -11.8228   15.8520    4.6449 H           1 ACT       0.0840
     40 H6        -11.3764   18.2691    5.4615 H           1 ACT       0.0584
     41 H7        -12.0530   18.8134    3.9480 H           1 ACT       0.0584
     42 H8         -9.2337   17.0009    5.4927 H           1 ACT       0.0703
     43 H9        -10.8156   18.4331    1.8463 H           1 ACT       0.0703
     44 H10        -7.0756   16.7637    4.4521 H           1 ACT       0.0736
     45 H11        -8.6546   18.1776    0.8191 H           1 ACT       0.0736
     46 H12       -14.9183   14.8126    8.9690 H           1 ACT       0.0276
     47 H13       -13.7692   16.1616    8.3524 H           1 ACT       0.0276
     48 H14       -15.6653   17.3827    7.4726 H           1 ACT       0.0276
     49 H15       -16.7999   16.0153    8.1118 H           1 ACT       0.0276
     50 H16       -13.7541   14.7955    5.3148 H           1 ACT       0.1839
     51 H17       -15.8331   14.3911    4.5221 H           1 ACT       0.1891
     52 H18       -17.0147   11.8781    5.4951 H           1 ACT       0.0828
     53 H19       -18.5740   12.3172    3.3646 H           1 ACT       0.0551
     54 H20       -18.1554   14.0042    3.6364 H           1 ACT       0.0551
     55 H21       -21.2807   13.4254    5.3717 H           1 ACT       0.1814
     56 H22       -20.7456   13.6110    3.7884 H           1 ACT       0.1814
     57 H23       -14.6401   11.8614    2.3026 H           1 ACT       0.1815
     58 H24       -14.8427   13.3366    3.0828 H           1 ACT       0.1815
@<TRIPOS>BOND
     1     1     2   2
     2     1     3   1
     3     4     1  am
     4     5     4   1
     5     6     5   1
     6     5     8   1
     7     6     7   2
     8    25     6  am
     9     8     9   1
    10     9    10  ar
    11     9    11  ar
    12    10    12  ar
    13    11    13  ar
    14    12    14  ar
    15    13    14  ar
    16    14    15   1
    17    15    16   1
    18    16    17  ar
    19    16    18  ar
    20    16    19  ar
    21    21    20   1
    22    22    20   1
    23    22    21   1
    24    22    23   1
    25    22    25   1
    26    23    24   2
    27    23    26  am
    28    26    27   1
    29    27    28   1
    30    27    30   1
    31    28    29   2
    32    28    34  am
    33    30    31   1
    34    31    32   2
    35    31    33  am
    36     3    35   1
    37     3    36   1
    38     3    37   1
    39     4    38   1
    40     5    39   1
    41     8    40   1
    42     8    41   1
    43    10    42   1
    44    11    43   1
    45    12    44   1
    46    13    45   1
    47    20    46   1
    48    20    47   1
    49    21    48   1
    50    21    49   1
    51    25    50   1
    52    26    51   1
    53    27    52   1
    54    30    53   1
    55    30    54   1
    56    33    55   1
    57    33    56   1
    58    34    57   1
    59    34    58   1
@<TRIPOS>SUBSTRUCTURE
     1  ACT      1

