@<TRIPOS>MOLECULE
3ov1_ligand_031
    58    59
SMALL
GAST_HUCK
****
This file was generated by PARSER (from files_GN.cpp)

@<TRIPOS>ATOM
      1 C         -20.8443   12.7055    1.9732 C.2         1 ACT       0.1753
      2 O         -20.2322   13.2345    1.0538 O.2         1 ACT      -0.3972
      3 CH3       -21.7869   11.6576    1.6423 C.3         1 ACT       0.0258
      4 N         -20.7061   13.1034    3.2331 N.am        1 ACT      -0.2628
      5 CA        -19.9211   14.2048    3.7360 C.3         1 ACT       0.1465
      6 C         -19.0080   13.7230    4.7686 C.2         1 ACT       0.2045
      7 O         -19.4589   13.0467    5.6869 O.2         1 ACT      -0.3944
      8 CB        -20.8321   15.3283    4.3237 C.3         1 ACT       0.0400
      9 CG        -21.8589   15.8204    3.3650 C.ar        1 ACT      -0.0004
     10 CD1       -23.0700   15.1094    3.1952 C.ar        1 ACT      -0.0239
     11 CD2       -21.6468   16.9898    2.5983 C.ar        1 ACT      -0.0239
     12 CE1       -24.0238   15.5274    2.2511 C.ar        1 ACT       0.0115
     13 CE2       -22.6079   17.4161    1.6631 C.ar        1 ACT       0.0115
     14 CZ        -23.7856   16.6675    1.4558 C.ar        1 ACT       0.1728
     15 OH        -24.7290   17.1006    0.5638 O.3         1 ACT      -0.2040
     16 P         -24.5601   16.5108   -0.8687 P.3         1 ACT       0.1348
     17 O1P       -25.5855   17.0894   -1.6981 O.co2       1 ACT      -0.6653
     18 O2P       -23.2929   16.8500   -1.4652 O.co2       1 ACT      -0.6653
     19 O3P       -24.7481   15.0827   -0.8992 O.co2       1 ACT      -0.6653
     20 CB        -16.4038   12.2664    5.9149 C.3         1 ACT      -0.0184
     21 CG        -15.4467   13.2291    5.2100 C.3         1 ACT      -0.0184
     22 CA        -16.7786   13.7562    5.7863 C.3         1 ACT       0.1329
     23 C         -16.6589   14.5926    6.9587 C.2         1 ACT       0.2267
     24 O         -17.1774   14.2056    7.9982 O.2         1 ACT      -0.3419
     25 N         -17.7399   14.1161    4.7891 N.am        1 ACT      -0.2738
     26 N         -16.0027   15.7416    6.8692 N.am        1 ACT      -0.2608
     27 CA        -15.8028   16.7116    7.9105 C.3         1 ACT       0.1474
     28 C         -16.0653   18.0295    7.3453 C.2         1 ACT       0.2017
     29 O         -15.3554   18.4887    6.4611 O.2         1 ACT      -0.3945
     30 CB        -14.3545   16.5697    8.4781 C.3         1 ACT       0.0774
     31 CG        -13.9398   17.4729    9.5423 C.2         1 ACT       0.1781
     32 OD1       -12.7492   17.5848    9.7964 O.2         1 ACT      -0.3970
     33 ND2       -14.7734   18.1070   10.3387 N.am        1 ACT      -0.3007
     34 N         -17.0865   18.7583    7.7392 N.am        1 ACT      -0.2988
     35 H1        -22.2845   11.2635    2.5316 H           1 ACT       0.0467
     36 H2        -21.2715   10.8338    1.1443 H           1 ACT       0.0467
     37 H3        -22.5536   12.0490    0.9694 H           1 ACT       0.0467
     38 H4        -21.2450   12.6317    3.8867 H           1 ACT       0.1885
     39 H5        -19.3372   14.6562    2.9249 H           1 ACT       0.0840
     40 H6        -20.1949   16.1629    4.6349 H           1 ACT       0.0584
     41 H7        -21.3377   14.9741    5.2279 H           1 ACT       0.0584
     42 H8        -23.2626   14.2751    3.7560 H           1 ACT       0.0703
     43 H9        -20.7900   17.5370    2.7119 H           1 ACT       0.0703
     44 H10       -24.8890   14.9946    2.1377 H           1 ACT       0.0736
     45 H11       -22.4437   18.2684    1.1219 H           1 ACT       0.0736
     46 H12       -16.0814   11.9174    6.8987 H           1 ACT       0.0276
     47 H13       -16.9246   11.5761    5.2528 H           1 ACT       0.0276
     48 H14       -15.3862   13.0786    4.1298 H           1 ACT       0.0276
     49 H15       -14.5245   13.4148    5.7667 H           1 ACT       0.0276
     50 H16       -17.4470   14.7292    4.0957 H           1 ACT       0.1839
     51 H17       -15.5891   15.9395    6.0137 H           1 ACT       0.1891
     52 H18       -16.5043   16.5241    8.7320 H           1 ACT       0.0828
     53 H19       -13.6471   16.6746    7.6478 H           1 ACT       0.0551
     54 H20       -14.2385   15.5523    8.8635 H           1 ACT       0.0551
     55 H21       -14.4275   18.6656   11.0547 H           1 ACT       0.1814
     56 H22       -15.7324   18.0180   10.2277 H           1 ACT       0.1814
     57 H23       -17.2417   19.6332    7.3473 H           1 ACT       0.1815
     58 H24       -17.7002   18.4151    8.4085 H           1 ACT       0.1815
@<TRIPOS>BOND
     1     1     2   2
     2     1     3   1
     3     4     1  am
     4     5     4   1
     5     6     5   1
     6     5     8   1
     7     6     7   2
     8    25     6  am
     9     8     9   1
    10     9    10  ar
    11     9    11  ar
    12    10    12  ar
    13    11    13  ar
    14    12    14  ar
    15    13    14  ar
    16    14    15   1
    17    15    16   1
    18    16    17  ar
    19    16    18  ar
    20    16    19  ar
    21    21    20   1
    22    22    20   1
    23    22    21   1
    24    22    23   1
    25    22    25   1
    26    23    24   2
    27    23    26  am
    28    26    27   1
    29    27    28   1
    30    27    30   1
    31    28    29   2
    32    28    34  am
    33    30    31   1
    34    31    32   2
    35    31    33  am
    36     3    35   1
    37     3    36   1
    38     3    37   1
    39     4    38   1
    40     5    39   1
    41     8    40   1
    42     8    41   1
    43    10    42   1
    44    11    43   1
    45    12    44   1
    46    13    45   1
    47    20    46   1
    48    20    47   1
    49    21    48   1
    50    21    49   1
    51    25    50   1
    52    26    51   1
    53    27    52   1
    54    30    53   1
    55    30    54   1
    56    33    55   1
    57    33    56   1
    58    34    57   1
    59    34    58   1
@<TRIPOS>SUBSTRUCTURE
     1  ACT      1

