@<TRIPOS>MOLECULE
3owj_ligand_035
    35    38
SMALL
GAST_HUCK
****
This file was generated by PARSER (from files_GN.cpp)

@<TRIPOS>ATOM
      1 C1         22.4711   10.4069   12.3669 C.ar        1 MOL       0.0721
      2 O1         22.6232   11.7474   12.2476 O.3         1 MOL      -0.3416
      3 C2         22.0956    9.6397   11.2431 C.ar        1 MOL      -0.0447
      4 C3         21.8986    8.2510   11.3678 C.ar        1 MOL      -0.0486
      5 C4         22.1018    7.6536   12.6236 C.ar        1 MOL       0.0523
      6 C5         22.5051    8.3891   13.7435 C.ar        1 MOL      -0.0192
      7 C6         22.6714    9.7866   13.6191 C.ar        1 MOL      -0.0435
      8 N7         21.9516    6.3724   12.9748 N.pl3       1 MOL      -0.2844
      9 C8         22.2423    6.2300   14.2815 C.ar        1 MOL       0.0555
     10 C9         22.6179    7.4744   14.8050 C.ar        1 MOL      -0.0101
     11 C10        22.2083    5.0544   15.0602 C.ar        1 MOL      -0.0320
     12 C11        21.8314    3.7589   14.4238 C.3         1 MOL      -0.0404
     13 C12        22.5056    5.1746   16.4509 C.ar        1 MOL      -0.0484
     14 C13        22.8536    6.4532   17.0149 C.ar        1 MOL       0.0334
     15 C14        23.0215    7.5913   16.1602 C.ar        1 MOL      -0.0423
     16 C15        23.6818    8.8542   16.5970 C.3         1 MOL      -0.0337
     17 C16        22.4646    4.0524   17.3046 C.2         1 MOL      -0.0576
     18 C17        22.6801    4.1879   18.6225 C.2         1 MOL       0.0437
     19 N18        22.8983    5.3901   19.1530 N.am        1 MOL      -0.2303
     20 C19        22.9759    6.4991   18.4256 C.2         1 MOL       0.2129
     21 O19        23.0121    7.5316   19.0779 O.2         1 MOL      -0.4002
     22 H1         23.5518   11.8676   11.9554 H           1 MOL       0.2441
     23 H2         21.9492   10.0939   10.3390 H           1 MOL       0.0496
     24 H3         21.6102    7.6902   10.5632 H           1 MOL       0.0512
     25 H4         22.9141   10.3645   14.4218 H           1 MOL       0.0468
     26 H5         21.6635    5.6640   12.3781 H           1 MOL       0.2115
     27 H6         21.6371    3.8435   13.3545 H           1 MOL       0.0343
     28 H7         20.9250    3.3696   14.8914 H           1 MOL       0.0343
     29 H8         22.6399    3.0368   14.5523 H           1 MOL       0.0343
     30 H9         24.3634    9.2133   15.8247 H           1 MOL       0.0394
     31 H10        24.3086    8.7270   17.4770 H           1 MOL       0.0394
     32 H11        22.9277    9.6155   16.8025 H           1 MOL       0.0394
     33 H12        22.2763    3.1411   16.9595 H           1 MOL       0.0271
     34 H13        22.6412    3.3974   19.2224 H           1 MOL       0.1097
     35 H14        22.9689    5.4609   20.1188 H           1 MOL       0.2459
@<TRIPOS>BOND
     1     1     2   1
     2     1     3  ar
     3     1     7  ar
     4     3     4  ar
     5     4     5  ar
     6     5     6  ar
     7     5     8   1
     8     6     7  ar
     9     6    10   1
    10     8     9   1
    11     9    10  ar
    12     9    11  ar
    13    10    15  ar
    14    11    12   1
    15    11    13  ar
    16    13    14  ar
    17    13    17   1
    18    14    15  ar
    19    14    20   1
    20    15    16   1
    21    17    18   2
    22    18    19  am
    23    19    20  am
    24    20    21   2
    25     2    22   1
    26     3    23   1
    27     4    24   1
    28     7    25   1
    29     8    26   1
    30    12    27   1
    31    12    28   1
    32    12    29   1
    33    16    30   1
    34    16    31   1
    35    16    32   1
    36    17    33   1
    37    18    34   1
    38    19    35   1
@<TRIPOS>SUBSTRUCTURE
     1  MOL      1

