@<TRIPOS>MOLECULE
3owj_ligand_034
    35    38
SMALL
GAST_HUCK
****
This file was generated by PARSER (from files_GN.cpp)

@<TRIPOS>ATOM
      1 C1         22.4621    4.1927   12.2835 C.ar        1 MOL       0.0721
      2 O1         22.2114    4.4739   10.9815 O.3         1 MOL      -0.3416
      3 C2         22.8285    2.8803   12.6521 C.ar        1 MOL      -0.0447
      4 C3         23.0605    2.5594   14.0034 C.ar        1 MOL      -0.0486
      5 C4         22.9255    3.5729   14.9658 C.ar        1 MOL       0.0523
      6 C5         22.5846    4.8861   14.6250 C.ar        1 MOL      -0.0192
      7 C6         22.3283    5.1958   13.2696 C.ar        1 MOL      -0.0435
      8 N7         23.0647    3.4868   16.2928 N.pl3       1 MOL      -0.2844
      9 C8         22.8265    4.6906   16.8440 C.ar        1 MOL       0.0555
     10 C9         22.5460    5.6133   15.8272 C.ar        1 MOL      -0.0101
     11 C10        22.8507    5.0444   18.2086 C.ar        1 MOL      -0.0320
     12 C11        23.1943    4.0140   19.2304 C.3         1 MOL      -0.0404
     13 C12        22.5098    6.3876   18.5488 C.ar        1 MOL      -0.0484
     14 C13        22.1906    7.3434   17.5207 C.ar        1 MOL       0.0334
     15 C14        22.3169    6.9782   16.1406 C.ar        1 MOL      -0.0423
     16 C15        22.3261    7.9727   15.0315 C.3         1 MOL      -0.0337
     17 C16        22.4790    6.8124   19.8929 C.2         1 MOL      -0.0576
     18 C17        22.1060    8.0631   20.2069 C.2         1 MOL       0.0437
     19 N18        21.7239    8.9149   19.2572 N.am        1 MOL      -0.2303
     20 C19        21.7343    8.6091   17.9646 C.2         1 MOL       0.2129
     21 O19        21.1918    9.4328   17.2441 O.2         1 MOL      -0.4002
     22 H1         23.0948    4.6154   10.5797 H           1 MOL       0.2441
     23 H2         22.9200    2.1569   11.9367 H           1 MOL       0.0496
     24 H3         23.3145    1.6086   14.2775 H           1 MOL       0.0512
     25 H4         22.0224    6.1273   12.9907 H           1 MOL       0.0468
     26 H5         23.2880    2.6768   16.7760 H           1 MOL       0.2115
     27 H6         23.4268    3.0395   18.8012 H           1 MOL       0.0343
     28 H7         22.3542    3.8793   19.9141 H           1 MOL       0.0343
     29 H8         24.0694    4.3376   19.7970 H           1 MOL       0.0343
     30 H9         23.0890    7.7169   14.2962 H           1 MOL       0.0394
     31 H10        22.5922    8.9735   15.3647 H           1 MOL       0.0394
     32 H11        21.3483    8.0032   14.5495 H           1 MOL       0.0394
     33 H12        22.7289    6.2051   20.6368 H           1 MOL       0.0271
     34 H13        22.0745    8.3548   21.1549 H           1 MOL       0.1097
     35 H14        21.3846    9.7828   19.5269 H           1 MOL       0.2459
@<TRIPOS>BOND
     1     1     2   1
     2     1     3  ar
     3     1     7  ar
     4     3     4  ar
     5     4     5  ar
     6     5     6  ar
     7     5     8   1
     8     6     7  ar
     9     6    10   1
    10     8     9   1
    11     9    10  ar
    12     9    11  ar
    13    10    15  ar
    14    11    12   1
    15    11    13  ar
    16    13    14  ar
    17    13    17   1
    18    14    15  ar
    19    14    20   1
    20    15    16   1
    21    17    18   2
    22    18    19  am
    23    19    20  am
    24    20    21   2
    25     2    22   1
    26     3    23   1
    27     4    24   1
    28     7    25   1
    29     8    26   1
    30    12    27   1
    31    12    28   1
    32    12    29   1
    33    16    30   1
    34    16    31   1
    35    16    32   1
    36    17    33   1
    37    18    34   1
    38    19    35   1
@<TRIPOS>SUBSTRUCTURE
     1  MOL      1

