@<TRIPOS>MOLECULE
3owj_ligand_040
    35    38
SMALL
GAST_HUCK
****
This file was generated by PARSER (from files_GN.cpp)

@<TRIPOS>ATOM
      1 C1         18.3575    5.1183   22.7129 C.ar        1 MOL       0.0721
      2 O1         17.8145    3.9031   22.4704 O.3         1 MOL      -0.3416
      3 C2         18.0116    6.1938   21.8674 C.ar        1 MOL      -0.0447
      4 C3         18.5900    7.4655   22.0612 C.ar        1 MOL      -0.0486
      5 C4         19.4819    7.6379   23.1342 C.ar        1 MOL       0.0523
      6 C5         19.7971    6.6008   24.0175 C.ar        1 MOL      -0.0192
      7 C6         19.2443    5.3192   23.7935 C.ar        1 MOL      -0.0435
      8 N7         20.1682    8.7319   23.4797 N.pl3       1 MOL      -0.2844
      9 C8         20.9229    8.4614   24.5598 C.ar        1 MOL       0.0555
     10 C9         20.6979    7.1348   24.9551 C.ar        1 MOL      -0.0101
     11 C10        21.8155    9.3200   25.2345 C.ar        1 MOL      -0.0320
     12 C11        21.9823   10.7246   24.7646 C.3         1 MOL      -0.0404
     13 C12        22.5610    8.7738   26.3222 C.ar        1 MOL      -0.0484
     14 C13        22.3669    7.4046   26.7245 C.ar        1 MOL       0.0334
     15 C14        21.3420    6.6125   26.1067 C.ar        1 MOL      -0.0423
     16 C15        20.8547    5.3215   26.6671 C.3         1 MOL      -0.0337
     17 C16        23.5035    9.5531   27.0236 C.2         1 MOL      -0.0576
     18 C17        24.2421    9.0122   28.0055 C.2         1 MOL       0.0437
     19 N18        24.1259    7.7206   28.3089 N.am        1 MOL      -0.2303
     20 C19        23.2550    6.9135   27.7143 C.2         1 MOL       0.2129
     21 O19        23.3935    5.7305   27.9836 O.2         1 MOL      -0.4002
     22 H1         18.5633    3.2544   22.5577 H           1 MOL       0.2441
     23 H2         17.3512    6.0560   21.0951 H           1 MOL       0.0496
     24 H3         18.3721    8.2441   21.4282 H           1 MOL       0.0512
     25 H4         19.4908    4.5278   24.3820 H           1 MOL       0.0468
     26 H5         20.1360    9.5784   23.0052 H           1 MOL       0.2115
     27 H6         21.3463   10.9755   23.9163 H           1 MOL       0.0343
     28 H7         23.0171   10.8879   24.4587 H           1 MOL       0.0343
     29 H8         21.7341   11.4125   25.5737 H           1 MOL       0.0343
     30 H9         19.7681    5.2631   26.5977 H           1 MOL       0.0394
     31 H10        21.0725    5.2138   27.7268 H           1 MOL       0.0394
     32 H11        21.2977    4.4912   26.1231 H           1 MOL       0.0394
     33 H12        23.6436   10.5114   26.8140 H           1 MOL       0.0271
     34 H13        24.9065    9.5641   28.4956 H           1 MOL       0.1097
     35 H14        24.7305    7.3486   28.9711 H           1 MOL       0.2459
@<TRIPOS>BOND
     1     1     2   1
     2     1     3  ar
     3     1     7  ar
     4     3     4  ar
     5     4     5  ar
     6     5     6  ar
     7     5     8   1
     8     6     7  ar
     9     6    10   1
    10     8     9   1
    11     9    10  ar
    12     9    11  ar
    13    10    15  ar
    14    11    12   1
    15    11    13  ar
    16    13    14  ar
    17    13    17   1
    18    14    15  ar
    19    14    20   1
    20    15    16   1
    21    17    18   2
    22    18    19  am
    23    19    20  am
    24    20    21   2
    25     2    22   1
    26     3    23   1
    27     4    24   1
    28     7    25   1
    29     8    26   1
    30    12    27   1
    31    12    28   1
    32    12    29   1
    33    16    30   1
    34    16    31   1
    35    16    32   1
    36    17    33   1
    37    18    34   1
    38    19    35   1
@<TRIPOS>SUBSTRUCTURE
     1  MOL      1

