@<TRIPOS>MOLECULE
3owj_ligand_008
    35    38
SMALL
GAST_HUCK
****
This file was generated by PARSER (from files_GN.cpp)

@<TRIPOS>ATOM
      1 C1         22.4865    2.0851   12.5242 C.ar        1 MOL       0.0721
      2 O1         22.1931    1.0367   11.7187 O.3         1 MOL      -0.3416
      3 C2         22.8846    1.8514   13.8582 C.ar        1 MOL      -0.0447
      4 C3         23.1769    2.9341   14.7107 C.ar        1 MOL      -0.0486
      5 C4         23.0740    4.2374   14.1988 C.ar        1 MOL       0.0523
      6 C5         22.7093    4.4924   12.8727 C.ar        1 MOL      -0.0192
      7 C6         22.3919    3.4034   12.0294 C.ar        1 MOL      -0.0435
      8 N7         23.2700    5.3986   14.8303 N.pl3       1 MOL      -0.2844
      9 C8         23.0459    6.4132   13.9758 C.ar        1 MOL       0.0555
     10 C9         22.7170    5.8891   12.7189 C.ar        1 MOL      -0.0101
     11 C10        23.1244    7.7977   14.2280 C.ar        1 MOL      -0.0320
     12 C11        23.5164    8.2803   15.5827 C.3         1 MOL      -0.0404
     13 C12        22.7876    8.6833   13.1615 C.ar        1 MOL      -0.0484
     14 C13        22.4192    8.1623   11.8710 C.ar        1 MOL       0.0334
     15 C14        22.4924    6.7539   11.6178 C.ar        1 MOL      -0.0423
     16 C15        22.4482    6.1659   10.2492 C.3         1 MOL      -0.0337
     17 C16        22.8093   10.0822   13.3402 C.2         1 MOL      -0.0576
     18 C17        22.4396   10.9040   12.3450 C.2         1 MOL       0.0437
     19 N18        22.0157   10.4123   11.1822 N.am        1 MOL      -0.2303
     20 C19        21.9724    9.1107   10.9208 C.2         1 MOL       0.2129
     21 O19        21.3911    8.8163    9.8881 O.2         1 MOL      -0.4002
     22 H1         21.2549    0.8167   11.9070 H           1 MOL       0.2441
     23 H2         22.9550    0.8941   14.2106 H           1 MOL       0.0496
     24 H3         23.4522    2.7796   15.6827 H           1 MOL       0.0512
     25 H4         22.0708    3.5484   11.0737 H           1 MOL       0.0468
     26 H5         23.5199    5.4886   15.7627 H           1 MOL       0.2115
     27 H6         23.7355    7.4734   16.2817 H           1 MOL       0.0343
     28 H7         22.7064    8.8731   16.0105 H           1 MOL       0.0343
     29 H8         24.4119    8.8996   15.5061 H           1 MOL       0.0343
     30 H9         23.1810    5.3639   10.1526 H           1 MOL       0.0394
     31 H10        22.7204    6.8794    9.4737 H           1 MOL       0.0394
     32 H11        21.4497    5.7766   10.0465 H           1 MOL       0.0394
     33 H12        23.0970   10.4933   14.1960 H           1 MOL       0.0271
     34 H13        22.4490   11.8888   12.4762 H           1 MOL       0.1097
     35 H14        21.6978   11.0346   10.5090 H           1 MOL       0.2459
@<TRIPOS>BOND
     1     1     2   1
     2     1     3  ar
     3     1     7  ar
     4     3     4  ar
     5     4     5  ar
     6     5     6  ar
     7     5     8   1
     8     6     7  ar
     9     6    10   1
    10     8     9   1
    11     9    10  ar
    12     9    11  ar
    13    10    15  ar
    14    11    12   1
    15    11    13  ar
    16    13    14  ar
    17    13    17   1
    18    14    15  ar
    19    14    20   1
    20    15    16   1
    21    17    18   2
    22    18    19  am
    23    19    20  am
    24    20    21   2
    25     2    22   1
    26     3    23   1
    27     4    24   1
    28     7    25   1
    29     8    26   1
    30    12    27   1
    31    12    28   1
    32    12    29   1
    33    16    30   1
    34    16    31   1
    35    16    32   1
    36    17    33   1
    37    18    34   1
    38    19    35   1
@<TRIPOS>SUBSTRUCTURE
     1  MOL      1

