@<TRIPOS>MOLECULE
3owj_ligand_025
    35    38
SMALL
GAST_HUCK
****
This file was generated by PARSER (from files_GN.cpp)

@<TRIPOS>ATOM
      1 C1         19.1352   -0.1802   22.0990 C.ar        1 MOL       0.0721
      2 O1         19.4620   -1.4477   21.7534 O.3         1 MOL      -0.3416
      3 C2         17.8635    0.0882   22.6496 C.ar        1 MOL      -0.0447
      4 C3         17.5151    1.4013   23.0213 C.ar        1 MOL      -0.0486
      5 C4         18.4549    2.4271   22.8273 C.ar        1 MOL       0.0523
      6 C5         19.7224    2.1824   22.2910 C.ar        1 MOL      -0.0192
      7 C6         20.0654    0.8634   21.9132 C.ar        1 MOL      -0.0435
      8 N7         18.3271    3.7343   23.0636 N.pl3       1 MOL      -0.2844
      9 C8         19.4466    4.3730   22.6783 C.ar        1 MOL       0.0555
     10 C9         20.3735    3.4274   22.2206 C.ar        1 MOL      -0.0101
     11 C10        19.7198    5.7551   22.7049 C.ar        1 MOL      -0.0320
     12 C11        18.6920    6.6993   23.2220 C.3         1 MOL      -0.0404
     13 C12        20.9801    6.1900   22.1918 C.ar        1 MOL      -0.0484
     14 C13        21.9370    5.2335   21.6990 C.ar        1 MOL       0.0334
     15 C14        21.6722    3.8294   21.8167 C.ar        1 MOL      -0.0423
     16 C15        22.7285    2.7873   21.6609 C.3         1 MOL      -0.0337
     17 C16        21.3242    7.5575   22.1626 C.2         1 MOL      -0.0576
     18 C17        22.4995    7.9546   21.6469 C.2         1 MOL       0.0437
     19 N18        23.3406    7.0710   21.1105 N.am        1 MOL      -0.2303
     20 C19        23.1002    5.7669   21.0936 C.2         1 MOL       0.2129
     21 O19        23.8675    5.1157   20.4028 O.2         1 MOL      -0.4002
     22 H1         18.6845   -1.7856   21.2312 H           1 MOL       0.2441
     23 H2         17.1920   -0.6699   22.7787 H           1 MOL       0.0496
     24 H3         16.5902    1.6042   23.4055 H           1 MOL       0.0512
     25 H4         20.9679    0.6576   21.4869 H           1 MOL       0.0468
     26 H5         17.5374    4.1599   23.4383 H           1 MOL       0.2115
     27 H6         17.7819    6.2029   23.5575 H           1 MOL       0.0343
     28 H7         18.4096    7.4016   22.4346 H           1 MOL       0.0343
     29 H8         19.0937    7.2541   24.0706 H           1 MOL       0.0343
     30 H9         22.6129    2.0134   22.4214 H           1 MOL       0.0394
     31 H10        23.7291    3.1821   21.8163 H           1 MOL       0.0394
     32 H11        22.6652    2.3404   20.6674 H           1 MOL       0.0394
     33 H12        20.7183    8.2550   22.5218 H           1 MOL       0.0271
     34 H13        22.7405    8.9203   21.6285 H           1 MOL       0.1097
     35 H14        24.1395    7.4029   20.6737 H           1 MOL       0.2459
@<TRIPOS>BOND
     1     1     2   1
     2     1     3  ar
     3     1     7  ar
     4     3     4  ar
     5     4     5  ar
     6     5     6  ar
     7     5     8   1
     8     6     7  ar
     9     6    10   1
    10     8     9   1
    11     9    10  ar
    12     9    11  ar
    13    10    15  ar
    14    11    12   1
    15    11    13  ar
    16    13    14  ar
    17    13    17   1
    18    14    15  ar
    19    14    20   1
    20    15    16   1
    21    17    18   2
    22    18    19  am
    23    19    20  am
    24    20    21   2
    25     2    22   1
    26     3    23   1
    27     4    24   1
    28     7    25   1
    29     8    26   1
    30    12    27   1
    31    12    28   1
    32    12    29   1
    33    16    30   1
    34    16    31   1
    35    16    32   1
    36    17    33   1
    37    18    34   1
    38    19    35   1
@<TRIPOS>SUBSTRUCTURE
     1  MOL      1

