@<TRIPOS>MOLECULE
3owj_ligand_012
    35    38
SMALL
GAST_HUCK
****
This file was generated by PARSER (from files_GN.cpp)

@<TRIPOS>ATOM
      1 C1         22.1687    0.9705   20.2841 C.ar        1 MOL       0.0721
      2 O1         22.1921   -0.3093   19.8394 O.3         1 MOL      -0.3416
      3 C2         21.8752    1.2192   21.6396 C.ar        1 MOL      -0.0447
      4 C3         21.8159    2.5400   22.1221 C.ar        1 MOL      -0.0486
      5 C4         22.0712    3.5929   21.2302 C.ar        1 MOL       0.0523
      6 C5         22.3921    3.3731   19.8865 C.ar        1 MOL      -0.0192
      7 C6         22.4186    2.0454   19.4016 C.ar        1 MOL      -0.0435
      8 N7         22.0416    4.9093   21.4589 N.pl3       1 MOL      -0.2844
      9 C8         22.3258    5.5673   20.3216 C.ar        1 MOL       0.0555
     10 C9         22.5808    4.6371   19.3053 C.ar        1 MOL      -0.0101
     11 C10        22.3878    6.9610   20.1125 C.ar        1 MOL      -0.0320
     12 C11        22.1394    7.8885   21.2530 C.3         1 MOL      -0.0404
     13 C12        22.6613    7.4180   18.7888 C.ar        1 MOL      -0.0484
     14 C13        22.8968    6.4774   17.7252 C.ar        1 MOL       0.0334
     15 C14        22.9622    5.0740   18.0104 C.ar        1 MOL      -0.0423
     16 C15        23.5197    4.0717   17.0586 C.3         1 MOL      -0.0337
     17 C16        22.7111    8.7960   18.4915 C.2         1 MOL      -0.0576
     18 C17        22.9185    9.2164   17.2328 C.2         1 MOL       0.0437
     19 N18        23.0456    8.3403   16.2383 N.am        1 MOL      -0.2303
     20 C19        23.0288    7.0249   16.4248 C.2         1 MOL       0.2129
     21 O19        22.9826    6.3676   15.3963 O.2         1 MOL      -0.4002
     22 H1         21.3536   -0.4183   19.3458 H           1 MOL       0.2441
     23 H2         21.6889    0.4403   22.2755 H           1 MOL       0.0496
     24 H3         21.5856    2.7286   23.0987 H           1 MOL       0.0512
     25 H4         22.5879    1.8493   18.4181 H           1 MOL       0.0468
     26 H5         21.8278    5.3203   22.3105 H           1 MOL       0.2115
     27 H6         21.9400    7.3740   22.1927 H           1 MOL       0.0343
     28 H7         21.2730    8.5152   21.0335 H           1 MOL       0.0343
     29 H8         23.0145    8.5228   21.4090 H           1 MOL       0.0343
     30 H9         24.1470    3.3503   17.5838 H           1 MOL       0.0394
     31 H10        24.1806    4.5175   16.3169 H           1 MOL       0.0394
     32 H11        22.7066    3.5492   16.5514 H           1 MOL       0.0394
     33 H12        22.5948    9.4860   19.1951 H           1 MOL       0.0271
     34 H13        22.9415   10.1867   17.0250 H           1 MOL       0.1097
     35 H14        23.1134    8.6807   15.3315 H           1 MOL       0.2459
@<TRIPOS>BOND
     1     1     2   1
     2     1     3  ar
     3     1     7  ar
     4     3     4  ar
     5     4     5  ar
     6     5     6  ar
     7     5     8   1
     8     6     7  ar
     9     6    10   1
    10     8     9   1
    11     9    10  ar
    12     9    11  ar
    13    10    15  ar
    14    11    12   1
    15    11    13  ar
    16    13    14  ar
    17    13    17   1
    18    14    15  ar
    19    14    20   1
    20    15    16   1
    21    17    18   2
    22    18    19  am
    23    19    20  am
    24    20    21   2
    25     2    22   1
    26     3    23   1
    27     4    24   1
    28     7    25   1
    29     8    26   1
    30    12    27   1
    31    12    28   1
    32    12    29   1
    33    16    30   1
    34    16    31   1
    35    16    32   1
    36    17    33   1
    37    18    34   1
    38    19    35   1
@<TRIPOS>SUBSTRUCTURE
     1  MOL      1

