@<TRIPOS>MOLECULE
3owj_ligand_022
    35    38
SMALL
GAST_HUCK
****
This file was generated by PARSER (from files_GN.cpp)

@<TRIPOS>ATOM
      1 C1         20.2748    1.7773   22.7645 C.ar        1 MOL       0.0721
      2 O1         19.4767    0.7767   23.2061 O.3         1 MOL      -0.3416
      3 C2         21.6475    1.5341   22.5417 C.ar        1 MOL      -0.0447
      4 C3         22.4898    2.5725   22.1007 C.ar        1 MOL      -0.0486
      5 C4         21.9290    3.8420   21.8794 C.ar        1 MOL       0.0523
      6 C5         20.5684    4.1020   22.0729 C.ar        1 MOL      -0.0192
      7 C6         19.7346    3.0630   22.5438 C.ar        1 MOL      -0.0435
      8 N7         22.5400    4.9689   21.4998 N.pl3       1 MOL      -0.2844
      9 C8         21.6374    5.9646   21.4334 C.ar        1 MOL       0.0555
     10 C9         20.3724    5.4579   21.7582 C.ar        1 MOL      -0.0101
     11 C10        21.8524    7.3135   21.0856 C.ar        1 MOL      -0.0320
     12 C11        23.2220    7.7678   20.7132 C.3         1 MOL      -0.0404
     13 C12        20.7318    8.1954   21.1361 C.ar        1 MOL      -0.0484
     14 C13        19.4294    7.7006   21.4983 C.ar        1 MOL       0.0334
     15 C14        19.2301    6.2968   21.7024 C.ar        1 MOL      -0.0423
     16 C15        17.8828    5.6654   21.7544 C.3         1 MOL      -0.0337
     17 C16        20.8692    9.5660   20.8347 C.2         1 MOL      -0.0576
     18 C17        19.8206   10.3977   20.9377 C.2         1 MOL       0.0437
     19 N18        18.6398    9.9499   21.3614 N.am        1 MOL      -0.2303
     20 C19        18.4114    8.6739   21.6516 C.2         1 MOL       0.2129
     21 O19        17.3334    8.4614   22.1863 O.2         1 MOL      -0.4002
     22 H1         19.3706    0.1842   22.4316 H           1 MOL       0.2441
     23 H2         22.0374    0.6040   22.7053 H           1 MOL       0.0496
     24 H3         23.4883    2.4099   21.9533 H           1 MOL       0.0512
     25 H4         18.7486    3.2236   22.7428 H           1 MOL       0.0468
     26 H5         23.4893    5.0521   21.3182 H           1 MOL       0.2115
     27 H6         23.9653    6.9707   20.7293 H           1 MOL       0.0343
     28 H7         23.5488    8.5365   21.4120 H           1 MOL       0.0343
     29 H8         23.2105    8.1848   19.7052 H           1 MOL       0.0343
     30 H9         17.8828    4.7257   21.2004 H           1 MOL       0.0394
     31 H10        17.1122    6.2658   21.2735 H           1 MOL       0.0394
     32 H11        17.5991    5.4808   22.7924 H           1 MOL       0.0394
     33 H12        21.7359    9.9504   20.5422 H           1 MOL       0.0271
     34 H13        19.9232   11.3641   20.7337 H           1 MOL       0.1097
     35 H14        17.9256   10.5936   21.4968 H           1 MOL       0.2459
@<TRIPOS>BOND
     1     1     2   1
     2     1     3  ar
     3     1     7  ar
     4     3     4  ar
     5     4     5  ar
     6     5     6  ar
     7     5     8   1
     8     6     7  ar
     9     6    10   1
    10     8     9   1
    11     9    10  ar
    12     9    11  ar
    13    10    15  ar
    14    11    12   1
    15    11    13  ar
    16    13    14  ar
    17    13    17   1
    18    14    15  ar
    19    14    20   1
    20    15    16   1
    21    17    18   2
    22    18    19  am
    23    19    20  am
    24    20    21   2
    25     2    22   1
    26     3    23   1
    27     4    24   1
    28     7    25   1
    29     8    26   1
    30    12    27   1
    31    12    28   1
    32    12    29   1
    33    16    30   1
    34    16    31   1
    35    16    32   1
    36    17    33   1
    37    18    34   1
    38    19    35   1
@<TRIPOS>SUBSTRUCTURE
     1  MOL      1

