@<TRIPOS>MOLECULE
3owj_ligand_021
    35    38
SMALL
GAST_HUCK
****
This file was generated by PARSER (from files_GN.cpp)

@<TRIPOS>ATOM
      1 C1         23.6043    9.5867   11.8926 C.ar        1 MOL       0.0721
      2 O1         23.5648   10.0896   10.6323 O.3         1 MOL      -0.3416
      3 C2         23.8077    8.2010   12.0485 C.ar        1 MOL      -0.0447
      4 C3         23.8157    7.6160   13.3286 C.ar        1 MOL      -0.0486
      5 C4         23.6276    8.4511   14.4441 C.ar        1 MOL       0.0523
      6 C5         23.4670    9.8337   14.3276 C.ar        1 MOL      -0.0192
      7 C6         23.4321   10.4077   13.0350 C.ar        1 MOL      -0.0435
      8 N7         23.5589    8.1055   15.7310 N.pl3       1 MOL      -0.2844
      9 C8         23.3631    9.2042   16.4781 C.ar        1 MOL       0.0555
     10 C9         23.3275   10.3271   15.6412 C.ar        1 MOL      -0.0101
     11 C10        23.2125    9.2859   17.8765 C.ar        1 MOL      -0.0320
     12 C11        23.2879    8.0451   18.7011 C.3         1 MOL      -0.0404
     13 C12        22.9453   10.5707   18.4376 C.ar        1 MOL      -0.0484
     14 C13        22.8835   11.7357   17.5945 C.ar        1 MOL       0.0334
     15 C14        23.1856   11.6228   16.1958 C.ar        1 MOL      -0.0423
     16 C15        23.4539   12.7995   15.3222 C.3         1 MOL      -0.0337
     17 C16        22.7275   10.7275   19.8234 C.2         1 MOL      -0.0576
     18 C17        22.4105   11.9309   20.3307 C.2         1 MOL       0.0437
     19 N18        22.2712   12.9877   19.5329 N.am        1 MOL      -0.2303
     20 C19        22.4763   12.9388   18.2218 C.2         1 MOL       0.2129
     21 O19        22.1428   13.9490   17.6196 O.2         1 MOL      -0.4002
     22 H1         23.0732   10.9448   10.6542 H           1 MOL       0.2441
     23 H2         23.9387    7.6059   11.2299 H           1 MOL       0.0496
     24 H3         23.9497    6.6081   13.4500 H           1 MOL       0.0512
     25 H4         23.2600   11.4044   12.9074 H           1 MOL       0.0468
     26 H5         23.6270    7.1977   16.0615 H           1 MOL       0.2115
     27 H6         23.4909    7.1486   18.1163 H           1 MOL       0.0343
     28 H7         22.3386    7.8888   19.2204 H           1 MOL       0.0343
     29 H8         24.0876    8.1421   19.4384 H           1 MOL       0.0343
     30 H9         24.2812   12.5965   14.6455 H           1 MOL       0.0394
     31 H10        23.7648   13.6800   15.8834 H           1 MOL       0.0394
     32 H11        22.5589   13.0409   14.7407 H           1 MOL       0.0394
     33 H12        22.8043    9.9657   20.4531 H           1 MOL       0.0271
     34 H13        22.2531   12.0377   21.3060 H           1 MOL       0.1097
     35 H14        21.9720   13.8230   19.9275 H           1 MOL       0.2459
@<TRIPOS>BOND
     1     1     2   1
     2     1     3  ar
     3     1     7  ar
     4     3     4  ar
     5     4     5  ar
     6     5     6  ar
     7     5     8   1
     8     6     7  ar
     9     6    10   1
    10     8     9   1
    11     9    10  ar
    12     9    11  ar
    13    10    15  ar
    14    11    12   1
    15    11    13  ar
    16    13    14  ar
    17    13    17   1
    18    14    15  ar
    19    14    20   1
    20    15    16   1
    21    17    18   2
    22    18    19  am
    23    19    20  am
    24    20    21   2
    25     2    22   1
    26     3    23   1
    27     4    24   1
    28     7    25   1
    29     8    26   1
    30    12    27   1
    31    12    28   1
    32    12    29   1
    33    16    30   1
    34    16    31   1
    35    16    32   1
    36    17    33   1
    37    18    34   1
    38    19    35   1
@<TRIPOS>SUBSTRUCTURE
     1  MOL      1

