@<TRIPOS>MOLECULE
3owj_ligand_039
    35    38
SMALL
GAST_HUCK
****
This file was generated by PARSER (from files_GN.cpp)

@<TRIPOS>ATOM
      1 C1         23.9941   14.5090   14.9683 C.ar        1 MOL       0.0721
      2 O1         24.2379   15.3960   13.9741 O.3         1 MOL      -0.3416
      3 C2         23.8996   14.9555   16.3072 C.ar        1 MOL      -0.0447
      4 C3         23.7137   14.0309   17.3546 C.ar        1 MOL      -0.0486
      5 C4         23.6088   12.6661   17.0363 C.ar        1 MOL       0.0523
      6 C5         23.6577   12.2061   15.7166 C.ar        1 MOL      -0.0192
      7 C6         23.8734   13.1327   14.6751 C.ar        1 MOL      -0.0435
      8 N7         23.4812   11.6176   17.8576 N.pl3       1 MOL      -0.2844
      9 C8         23.4491   10.4835   17.1353 C.ar        1 MOL       0.0555
     10 C9         23.5171   10.8094   15.7751 C.ar        1 MOL      -0.0101
     11 C10        23.3480    9.1555   17.5942 C.ar        1 MOL      -0.0320
     12 C11        23.2939    8.8847   19.0580 C.3         1 MOL      -0.0404
     13 C12        23.3602    8.1127   16.6195 C.ar        1 MOL      -0.0484
     14 C13        23.4602    8.4263   15.2171 C.ar        1 MOL       0.0334
     15 C14        23.4269    9.7936   14.7863 C.ar        1 MOL      -0.0423
     16 C15        23.1856   10.1928   13.3716 C.3         1 MOL      -0.0337
     17 C16        23.2796    6.7577   16.9979 C.2         1 MOL      -0.0576
     18 C17        23.3700    5.7838   16.0781 C.2         1 MOL       0.0437
     19 N18        23.5679    6.0801   14.7937 N.am        1 MOL      -0.2303
     20 C19        23.6225    7.3266   14.3411 C.2         1 MOL       0.2129
     21 O19        23.9700    7.4299   13.1747 O.2         1 MOL      -0.4002
     22 H1         24.8099   14.9219   13.3233 H           1 MOL       0.2441
     23 H2         23.9891   15.9489   16.5200 H           1 MOL       0.0496
     24 H3         23.6690   14.3412   18.3267 H           1 MOL       0.0512
     25 H4         23.9812   12.8193   13.7106 H           1 MOL       0.0468
     26 H5         23.4397   11.6740   18.8268 H           1 MOL       0.2115
     27 H6         23.3257    9.7877   19.6676 H           1 MOL       0.0343
     28 H7         24.1484    8.2676   19.3421 H           1 MOL       0.0343
     29 H8         22.3715    8.3541   19.3023 H           1 MOL       0.0343
     30 H9         22.5240   11.0578   13.3305 H           1 MOL       0.0394
     31 H10        22.6731    9.4217   12.8060 H           1 MOL       0.0394
     32 H11        24.1317   10.4308   12.8860 H           1 MOL       0.0394
     33 H12        23.1522    6.4877   17.9433 H           1 MOL       0.0271
     34 H13        23.3272    4.8295   16.3502 H           1 MOL       0.1097
     35 H14        23.7142    5.3493   14.1714 H           1 MOL       0.2459
@<TRIPOS>BOND
     1     1     2   1
     2     1     3  ar
     3     1     7  ar
     4     3     4  ar
     5     4     5  ar
     6     5     6  ar
     7     5     8   1
     8     6     7  ar
     9     6    10   1
    10     8     9   1
    11     9    10  ar
    12     9    11  ar
    13    10    15  ar
    14    11    12   1
    15    11    13  ar
    16    13    14  ar
    17    13    17   1
    18    14    15  ar
    19    14    20   1
    20    15    16   1
    21    17    18   2
    22    18    19  am
    23    19    20  am
    24    20    21   2
    25     2    22   1
    26     3    23   1
    27     4    24   1
    28     7    25   1
    29     8    26   1
    30    12    27   1
    31    12    28   1
    32    12    29   1
    33    16    30   1
    34    16    31   1
    35    16    32   1
    36    17    33   1
    37    18    34   1
    38    19    35   1
@<TRIPOS>SUBSTRUCTURE
     1  MOL      1

