@<TRIPOS>MOLECULE
3owj_ligand_042
    35    38
SMALL
GAST_HUCK
****
This file was generated by PARSER (from files_GN.cpp)

@<TRIPOS>ATOM
      1 C1         15.9483    7.9517   22.9456 C.ar        1 MOL       0.0721
      2 O1         15.2494    6.8814   23.3920 O.3         1 MOL      -0.3416
      3 C2         15.3448    9.2276   22.9339 C.ar        1 MOL      -0.0447
      4 C3         16.0432   10.3366   22.4217 C.ar        1 MOL      -0.0486
      5 C4         17.3516   10.1434   21.9466 C.ar        1 MOL       0.0523
      6 C5         17.9860    8.8985   21.9873 C.ar        1 MOL      -0.0192
      7 C6         17.2671    7.7808   22.4682 C.ar        1 MOL      -0.0435
      8 N7         18.1709   11.0311   21.3777 N.pl3       1 MOL      -0.2844
      9 C8         19.3170   10.4181   21.0313 C.ar        1 MOL       0.0555
     10 C9         19.2636    9.0800   21.4329 C.ar        1 MOL      -0.0101
     11 C10        20.4251   10.9679   20.3570 C.ar        1 MOL      -0.0320
     12 C11        20.4106   12.4060   19.9672 C.3         1 MOL      -0.0404
     13 C12        21.5008   10.0867   20.0322 C.ar        1 MOL      -0.0484
     14 C13        21.4606    8.7040   20.4326 C.ar        1 MOL       0.0334
     15 C14        20.3761    8.2218   21.2359 C.ar        1 MOL      -0.0423
     16 C15        20.3989    6.9087   21.9351 C.3         1 MOL      -0.0337
     17 C16        22.6193   10.5475   19.3056 C.2         1 MOL      -0.0576
     18 C17        23.5924    9.6990   18.9425 C.2         1 MOL       0.0437
     19 N18        23.5203    8.4064   19.2565 N.am        1 MOL      -0.2303
     20 C19        22.5166    7.8864   19.9534 C.2         1 MOL       0.2129
     21 O19        22.5239    6.6662   20.0164 O.2         1 MOL      -0.4002
     22 H1         15.0708    7.0805   24.3482 H           1 MOL       0.2441
     23 H2         14.3891    9.3440   23.2753 H           1 MOL       0.0496
     24 H3         15.6047   11.2578   22.3831 H           1 MOL       0.0512
     25 H4         17.6725    6.8445   22.4539 H           1 MOL       0.0468
     26 H5         17.9508   11.9623   21.2082 H           1 MOL       0.2115
     27 H6         19.5116   12.9320   20.2875 H           1 MOL       0.0343
     28 H7         20.4686   12.4904   18.8802 H           1 MOL       0.0343
     29 H8         21.2641   12.9177   20.4133 H           1 MOL       0.0343
     30 H9         19.9454    6.9913   22.9267 H           1 MOL       0.0394
     31 H10        21.4093    6.5494   22.1260 H           1 MOL       0.0394
     32 H11        19.8560    6.1636   21.3493 H           1 MOL       0.0394
     33 H12        22.7105   11.4966   19.0368 H           1 MOL       0.0271
     34 H13        24.3686   10.0212   18.4113 H           1 MOL       0.1097
     35 H14        24.2131    7.8129   18.9254 H           1 MOL       0.2459
@<TRIPOS>BOND
     1     1     2   1
     2     1     3  ar
     3     1     7  ar
     4     3     4  ar
     5     4     5  ar
     6     5     6  ar
     7     5     8   1
     8     6     7  ar
     9     6    10   1
    10     8     9   1
    11     9    10  ar
    12     9    11  ar
    13    10    15  ar
    14    11    12   1
    15    11    13  ar
    16    13    14  ar
    17    13    17   1
    18    14    15  ar
    19    14    20   1
    20    15    16   1
    21    17    18   2
    22    18    19  am
    23    19    20  am
    24    20    21   2
    25     2    22   1
    26     3    23   1
    27     4    24   1
    28     7    25   1
    29     8    26   1
    30    12    27   1
    31    12    28   1
    32    12    29   1
    33    16    30   1
    34    16    31   1
    35    16    32   1
    36    17    33   1
    37    18    34   1
    38    19    35   1
@<TRIPOS>SUBSTRUCTURE
     1  MOL      1

