@<TRIPOS>MOLECULE
3owj_ligand_044
    35    38
SMALL
GAST_HUCK
****
This file was generated by PARSER (from files_GN.cpp)

@<TRIPOS>ATOM
      1 C1         26.3951   14.5211   21.4632 C.ar        1 MOL       0.0721
      2 O1         25.9261   15.1091   20.3343 O.3         1 MOL      -0.3416
      3 C2         27.7216   14.7733   21.8740 C.ar        1 MOL      -0.0447
      4 C3         28.2498   14.1251   23.0069 C.ar        1 MOL      -0.0486
      5 C4         27.4222   13.2428   23.7212 C.ar        1 MOL       0.0523
      6 C5         26.0913   13.0086   23.3593 C.ar        1 MOL      -0.0192
      7 C6         25.5754   13.6433   22.2078 C.ar        1 MOL      -0.0435
      8 N7         27.7206   12.4977   24.7892 N.pl3       1 MOL      -0.2844
      9 C8         26.6417   11.7770   25.1454 C.ar        1 MOL       0.0555
     10 C9         25.5775   12.0883   24.2892 C.ar        1 MOL      -0.0101
     11 C10        26.5236   10.8495   26.1998 C.ar        1 MOL      -0.0320
     12 C11        27.7014   10.5780   27.0729 C.3         1 MOL      -0.0404
     13 C12        25.2749   10.1749   26.3500 C.ar        1 MOL      -0.0484
     14 C13        24.1768   10.4620   25.4637 C.ar        1 MOL       0.0334
     15 C14        24.2996   11.5043   24.4872 C.ar        1 MOL      -0.0423
     16 C15        23.1418   12.0693   23.7387 C.3         1 MOL      -0.0337
     17 C16        25.0863    9.2142   27.3649 C.2         1 MOL      -0.0576
     18 C17        23.9281    8.5435   27.4646 C.2         1 MOL       0.0437
     19 N18        22.9496    8.7472   26.5860 N.am        1 MOL      -0.2303
     20 C19        23.0300    9.6425   25.6082 C.2         1 MOL       0.2129
     21 O19        22.1190    9.5839   24.7967 O.2         1 MOL      -0.4002
     22 H1         25.4330   14.4015   19.8701 H           1 MOL       0.2441
     23 H2         28.3119   15.4099   21.3346 H           1 MOL       0.0496
     24 H3         29.2172   14.2821   23.2961 H           1 MOL       0.0512
     25 H4         24.6300   13.4561   21.8813 H           1 MOL       0.0468
     26 H5         28.5863   12.4739   25.2243 H           1 MOL       0.2115
     27 H6         28.5758   11.1785   26.8223 H           1 MOL       0.0343
     28 H7         27.9855    9.5296   26.9777 H           1 MOL       0.0343
     29 H8         27.4488   10.7890   28.1137 H           1 MOL       0.0343
     30 H9         23.2145   13.1568   23.6939 H           1 MOL       0.0394
     31 H10        22.1858   11.8800   24.2195 H           1 MOL       0.0394
     32 H11        23.1207   11.6615   22.7264 H           1 MOL       0.0394
     33 H12        25.7941    9.0145   28.0303 H           1 MOL       0.0271
     34 H13        23.8013    7.8636   28.1763 H           1 MOL       0.1097
     35 H14        22.1576    8.1892   26.6419 H           1 MOL       0.2459
@<TRIPOS>BOND
     1     1     2   1
     2     1     3  ar
     3     1     7  ar
     4     3     4  ar
     5     4     5  ar
     6     5     6  ar
     7     5     8   1
     8     6     7  ar
     9     6    10   1
    10     8     9   1
    11     9    10  ar
    12     9    11  ar
    13    10    15  ar
    14    11    12   1
    15    11    13  ar
    16    13    14  ar
    17    13    17   1
    18    14    15  ar
    19    14    20   1
    20    15    16   1
    21    17    18   2
    22    18    19  am
    23    19    20  am
    24    20    21   2
    25     2    22   1
    26     3    23   1
    27     4    24   1
    28     7    25   1
    29     8    26   1
    30    12    27   1
    31    12    28   1
    32    12    29   1
    33    16    30   1
    34    16    31   1
    35    16    32   1
    36    17    33   1
    37    18    34   1
    38    19    35   1
@<TRIPOS>SUBSTRUCTURE
     1  MOL      1

