@<TRIPOS>MOLECULE
3owj_ligand_033
    35    38
SMALL
GAST_HUCK
****
This file was generated by PARSER (from files_GN.cpp)

@<TRIPOS>ATOM
      1 C1         16.1358    0.6695   22.8751 C.ar        1 MOL       0.0721
      2 O1         14.8928    0.1354   22.9781 O.3         1 MOL      -0.3416
      3 C2         16.3265    2.0007   23.2987 C.ar        1 MOL      -0.0447
      4 C3         17.5875    2.6163   23.1770 C.ar        1 MOL      -0.0486
      5 C4         18.6535    1.8675   22.6548 C.ar        1 MOL       0.0523
      6 C5         18.4978    0.5380   22.2511 C.ar        1 MOL      -0.0192
      7 C6         17.2219   -0.0594   22.3379 C.ar        1 MOL      -0.0435
      8 N7         19.9198    2.2422   22.4521 N.pl3       1 MOL      -0.2844
      9 C8         20.6010    1.2148   21.9101 C.ar        1 MOL       0.0555
     10 C9         19.7510    0.1090   21.7870 C.ar        1 MOL      -0.0101
     11 C10        21.9499    1.1802   21.5181 C.ar        1 MOL      -0.0320
     12 C11        22.8033    2.3895   21.7088 C.3         1 MOL      -0.0404
     13 C12        22.4310   -0.0235   20.9179 C.ar        1 MOL      -0.0484
     14 C13        21.5643   -1.1620   20.7570 C.ar        1 MOL       0.0334
     15 C14        20.2402   -1.1264   21.2934 C.ar        1 MOL      -0.0423
     16 C15        19.4021   -2.3448   21.4619 C.3         1 MOL      -0.0337
     17 C16        23.7615   -0.1342   20.4761 C.2         1 MOL      -0.0576
     18 C17        24.1975   -1.2458   19.8601 C.2         1 MOL       0.0437
     19 N18        23.3630   -2.2560   19.6255 N.am        1 MOL      -0.2303
     20 C19        22.1038   -2.2613   20.0423 C.2         1 MOL       0.2129
     21 O19        21.4414   -3.1923   19.6157 O.2         1 MOL      -0.4002
     22 H1         14.9853   -0.8155   22.7679 H           1 MOL       0.2441
     23 H2         15.5432    2.5259   23.6930 H           1 MOL       0.0496
     24 H3         17.7319    3.5844   23.4757 H           1 MOL       0.0512
     25 H4         17.0558   -1.0024   21.9893 H           1 MOL       0.0468
     26 H5         20.2749    3.1222   22.6471 H           1 MOL       0.2115
     27 H6         22.2753    3.2190   22.1808 H           1 MOL       0.0343
     28 H7         23.1644    2.7407   20.7401 H           1 MOL       0.0343
     29 H8         23.6581    2.1453   22.3437 H           1 MOL       0.0343
     30 H9         18.8881   -2.3158   22.4228 H           1 MOL       0.0394
     31 H10        19.9855   -3.2627   21.4962 H           1 MOL       0.0394
     32 H11        18.6759   -2.4106   20.6533 H           1 MOL       0.0394
     33 H12        24.4095    0.5965   20.6172 H           1 MOL       0.0271
     34 H13        25.1291   -1.3001   19.5239 H           1 MOL       0.1097
     35 H14        23.6643   -2.9785   19.0487 H           1 MOL       0.2459
@<TRIPOS>BOND
     1     1     2   1
     2     1     3  ar
     3     1     7  ar
     4     3     4  ar
     5     4     5  ar
     6     5     6  ar
     7     5     8   1
     8     6     7  ar
     9     6    10   1
    10     8     9   1
    11     9    10  ar
    12     9    11  ar
    13    10    15  ar
    14    11    12   1
    15    11    13  ar
    16    13    14  ar
    17    13    17   1
    18    14    15  ar
    19    14    20   1
    20    15    16   1
    21    17    18   2
    22    18    19  am
    23    19    20  am
    24    20    21   2
    25     2    22   1
    26     3    23   1
    27     4    24   1
    28     7    25   1
    29     8    26   1
    30    12    27   1
    31    12    28   1
    32    12    29   1
    33    16    30   1
    34    16    31   1
    35    16    32   1
    36    17    33   1
    37    18    34   1
    38    19    35   1
@<TRIPOS>SUBSTRUCTURE
     1  MOL      1

