@<TRIPOS>MOLECULE
3owj_ligand_052
    35    38
SMALL
GAST_HUCK
****
This file was generated by PARSER (from files_GN.cpp)

@<TRIPOS>ATOM
      1 C1         18.9607   12.8440   17.3093 C.ar        1 MOL       0.0721
      2 O1         18.5943   11.6889   17.9258 O.3         1 MOL      -0.3416
      3 C2         18.2016   14.0143   17.5291 C.ar        1 MOL      -0.0447
      4 C3         18.5536   15.2154   16.8902 C.ar        1 MOL      -0.0486
      5 C4         19.6496   15.2110   16.0138 C.ar        1 MOL       0.0523
      6 C5         20.4341   14.0736   15.7996 C.ar        1 MOL      -0.0192
      7 C6         20.0880   12.8724   16.4569 C.ar        1 MOL      -0.0435
      8 N7         20.1077   16.2121   15.2573 N.pl3       1 MOL      -0.2844
      9 C8         21.1744   15.7860   14.5570 C.ar        1 MOL       0.0555
     10 C9         21.4339   14.4480   14.8879 C.ar        1 MOL      -0.0101
     11 C10        21.9688   16.5197   13.6535 C.ar        1 MOL      -0.0320
     12 C11        21.6481   17.9525   13.3909 C.3         1 MOL      -0.0404
     13 C12        23.0366   15.8319   13.0102 C.ar        1 MOL      -0.0484
     14 C13        23.2985   14.4486   13.3082 C.ar        1 MOL       0.0334
     15 C14        22.5527   13.7785   14.3308 C.ar        1 MOL      -0.0423
     16 C15        22.9475   12.4640   14.9091 C.3         1 MOL      -0.0337
     17 C16        23.8560   16.4853   12.0701 C.2         1 MOL      -0.0576
     18 C17        24.8155   15.8169   11.4134 C.2         1 MOL       0.0437
     19 N18        24.9740   14.5097   11.6034 N.am        1 MOL      -0.2303
     20 C19        24.2789   13.8149   12.5007 C.2         1 MOL       0.2129
     21 O19        24.4357   12.6024   12.4399 O.2         1 MOL      -0.4002
     22 H1         19.4004   11.3808   18.4096 H           1 MOL       0.2441
     23 H2         17.3938   13.9898   18.1502 H           1 MOL       0.0496
     24 H3         18.0179   16.0690   17.0515 H           1 MOL       0.0512
     25 H4         20.6067   12.0095   16.2981 H           1 MOL       0.0468
     26 H5         19.7210   17.1009   15.2199 H           1 MOL       0.2115
     27 H6         20.8055   18.3252   13.9777 H           1 MOL       0.0343
     28 H7         21.3965   18.0847   12.3383 H           1 MOL       0.0343
     29 H8         22.5109   18.5746   13.6354 H           1 MOL       0.0343
     30 H9         22.8404   12.4810   15.9939 H           1 MOL       0.0394
     31 H10        23.9942   12.2186   14.7446 H           1 MOL       0.0394
     32 H11        22.3229   11.6724   14.4917 H           1 MOL       0.0394
     33 H12        23.7432   17.4539   11.8636 H           1 MOL       0.0271
     34 H13        25.3873   16.2823   10.7510 H           1 MOL       0.1097
     35 H14        25.5788   14.0270   11.0199 H           1 MOL       0.2459
@<TRIPOS>BOND
     1     1     2   1
     2     1     3  ar
     3     1     7  ar
     4     3     4  ar
     5     4     5  ar
     6     5     6  ar
     7     5     8   1
     8     6     7  ar
     9     6    10   1
    10     8     9   1
    11     9    10  ar
    12     9    11  ar
    13    10    15  ar
    14    11    12   1
    15    11    13  ar
    16    13    14  ar
    17    13    17   1
    18    14    15  ar
    19    14    20   1
    20    15    16   1
    21    17    18   2
    22    18    19  am
    23    19    20  am
    24    20    21   2
    25     2    22   1
    26     3    23   1
    27     4    24   1
    28     7    25   1
    29     8    26   1
    30    12    27   1
    31    12    28   1
    32    12    29   1
    33    16    30   1
    34    16    31   1
    35    16    32   1
    36    17    33   1
    37    18    34   1
    38    19    35   1
@<TRIPOS>SUBSTRUCTURE
     1  MOL      1

