@<TRIPOS>MOLECULE
3owj_ligand_023
    35    38
SMALL
GAST_HUCK
****
This file was generated by PARSER (from files_GN.cpp)

@<TRIPOS>ATOM
      1 C1         22.4355    3.9176   13.3058 C.ar        1 MOL       0.0721
      2 O1         22.2411    3.4093   12.0642 O.3         1 MOL      -0.3416
      3 C2         22.4439    3.0762   14.4412 C.ar        1 MOL      -0.0447
      4 C3         22.6461    3.6223   15.7235 C.ar        1 MOL      -0.0486
      5 C4         22.8675    5.0051   15.8369 C.ar        1 MOL       0.0523
      6 C5         22.8936    5.8496   14.7230 C.ar        1 MOL      -0.0192
      7 C6         22.6477    5.3048   13.4454 C.ar        1 MOL      -0.0435
      8 N7         23.0671    5.7332   16.9387 N.pl3       1 MOL      -0.2844
      9 C8         23.2179    7.0279   16.5959 C.ar        1 MOL       0.0555
     10 C9         23.1434    7.1452   15.2017 C.ar        1 MOL      -0.0101
     11 C10        23.4244    8.1364   17.4414 C.ar        1 MOL      -0.0320
     12 C11        23.5224    7.9295   18.9139 C.3         1 MOL      -0.0404
     13 C12        23.4853    9.4272   16.8352 C.ar        1 MOL      -0.0484
     14 C13        23.3882    9.5676   15.4058 C.ar        1 MOL       0.0334
     15 C14        23.3291    8.4034   14.5734 C.ar        1 MOL      -0.0423
     16 C15        23.5372    8.4392   13.0973 C.3         1 MOL      -0.0337
     17 C16        23.6457   10.5901   17.6148 C.2         1 MOL      -0.0576
     18 C17        23.6508   11.8050   17.0409 C.2         1 MOL       0.0437
     19 N18        23.4752   11.9335   15.7274 N.am        1 MOL      -0.2303
     20 C19        23.3269   10.8952   14.9118 C.2         1 MOL       0.2129
     21 O19        23.0113   11.1908   13.7688 O.2         1 MOL      -0.4002
     22 H1         23.0133    2.8238   11.9056 H           1 MOL       0.2441
     23 H2         22.2949    2.0696   14.3369 H           1 MOL       0.0496
     24 H3         22.6430    3.0282   16.5563 H           1 MOL       0.0512
     25 H4         22.6072    5.8947   12.6164 H           1 MOL       0.0468
     26 H5         23.0767    5.3833   17.8405 H           1 MOL       0.2115
     27 H6         23.4408    6.8838   19.2098 H           1 MOL       0.0343
     28 H7         22.7207    8.4755   19.4125 H           1 MOL       0.0343
     29 H8         24.4857    8.2966   19.2748 H           1 MOL       0.0343
     30 H9         24.1486    7.5940   12.7757 H           1 MOL       0.0394
     31 H10        24.0932    9.3171   12.7706 H           1 MOL       0.0394
     32 H11        22.5753    8.4120   12.5861 H           1 MOL       0.0394
     33 H12        23.7719   10.5448   18.5986 H           1 MOL       0.0271
     34 H13        23.7737   12.6212   17.5924 H           1 MOL       0.1097
     35 H14        23.4265   12.8284   15.3551 H           1 MOL       0.2459
@<TRIPOS>BOND
     1     1     2   1
     2     1     3  ar
     3     1     7  ar
     4     3     4  ar
     5     4     5  ar
     6     5     6  ar
     7     5     8   1
     8     6     7  ar
     9     6    10   1
    10     8     9   1
    11     9    10  ar
    12     9    11  ar
    13    10    15  ar
    14    11    12   1
    15    11    13  ar
    16    13    14  ar
    17    13    17   1
    18    14    15  ar
    19    14    20   1
    20    15    16   1
    21    17    18   2
    22    18    19  am
    23    19    20  am
    24    20    21   2
    25     2    22   1
    26     3    23   1
    27     4    24   1
    28     7    25   1
    29     8    26   1
    30    12    27   1
    31    12    28   1
    32    12    29   1
    33    16    30   1
    34    16    31   1
    35    16    32   1
    36    17    33   1
    37    18    34   1
    38    19    35   1
@<TRIPOS>SUBSTRUCTURE
     1  MOL      1

