@<TRIPOS>MOLECULE
3owj_ligand_055
    35    38
SMALL
GAST_HUCK
****
This file was generated by PARSER (from files_GN.cpp)

@<TRIPOS>ATOM
      1 C1         19.4466   18.5519   14.9146 C.ar        1 MOL       0.0721
      2 O1         18.4073   19.3663   14.6083 O.3         1 MOL      -0.3416
      3 C2         20.7609   19.0631   14.8840 C.ar        1 MOL      -0.0447
      4 C3         21.8525   18.2267   15.1809 C.ar        1 MOL      -0.0486
      5 C4         21.5991   16.8856   15.5186 C.ar        1 MOL       0.0523
      6 C5         20.3037   16.3632   15.5802 C.ar        1 MOL      -0.0192
      7 C6         19.2162   17.1988   15.2462 C.ar        1 MOL      -0.0435
      8 N7         22.4693   15.9108   15.7971 N.pl3       1 MOL      -0.2844
      9 C8         21.8032   14.7677   16.0405 C.ar        1 MOL       0.0555
     10 C9         20.4263   15.0105   15.9439 C.ar        1 MOL      -0.0101
     11 C10        22.3377   13.5048   16.3605 C.ar        1 MOL      -0.0320
     12 C11        23.8159   13.3401   16.4876 C.3         1 MOL      -0.0404
     13 C12        21.4203   12.4247   16.5239 C.ar        1 MOL      -0.0484
     14 C13        20.0026   12.6485   16.4015 C.ar        1 MOL       0.0334
     15 C14        19.4952   13.9752   16.2164 C.ar        1 MOL      -0.0423
     16 C15        18.0592   14.3433   16.4042 C.3         1 MOL      -0.0337
     17 C16        21.8790   11.1236   16.8133 C.2         1 MOL      -0.0576
     18 C17        21.0119   10.1053   16.9185 C.2         1 MOL       0.0437
     19 N18        19.7100   10.3001   16.7119 N.am        1 MOL      -0.2303
     20 C19        19.1886   11.4930   16.4485 C.2         1 MOL       0.2129
     21 O19        18.0147   11.4686   16.1060 O.2         1 MOL      -0.4002
     22 H1         17.9590   19.5232   15.4664 H           1 MOL       0.2441
     23 H2         20.9212   20.0438   14.6375 H           1 MOL       0.0496
     24 H3         22.8097   18.5854   15.1468 H           1 MOL       0.0512
     25 H4         18.2700   16.8268   15.2125 H           1 MOL       0.0468
     26 H5         23.4314   16.0138   15.8036 H           1 MOL       0.2115
     27 H6         24.3640   14.2695   16.3345 H           1 MOL       0.0343
     28 H7         24.1736   12.6221   15.7482 H           1 MOL       0.0343
     29 H8         24.0633   12.9781   17.4865 H           1 MOL       0.0343
     30 H9         17.9724   15.2882   16.9422 H           1 MOL       0.0394
     31 H10        17.5189   13.6248   17.0180 H           1 MOL       0.0394
     32 H11        17.5620   14.4321   15.4377 H           1 MOL       0.0394
     33 H12        22.8412   10.9254   16.9491 H           1 MOL       0.0271
     34 H13        21.3320    9.1864   17.1121 H           1 MOL       0.1097
     35 H14        19.1270    9.5263   16.7094 H           1 MOL       0.2459
@<TRIPOS>BOND
     1     1     2   1
     2     1     3  ar
     3     1     7  ar
     4     3     4  ar
     5     4     5  ar
     6     5     6  ar
     7     5     8   1
     8     6     7  ar
     9     6    10   1
    10     8     9   1
    11     9    10  ar
    12     9    11  ar
    13    10    15  ar
    14    11    12   1
    15    11    13  ar
    16    13    14  ar
    17    13    17   1
    18    14    15  ar
    19    14    20   1
    20    15    16   1
    21    17    18   2
    22    18    19  am
    23    19    20  am
    24    20    21   2
    25     2    22   1
    26     3    23   1
    27     4    24   1
    28     7    25   1
    29     8    26   1
    30    12    27   1
    31    12    28   1
    32    12    29   1
    33    16    30   1
    34    16    31   1
    35    16    32   1
    36    17    33   1
    37    18    34   1
    38    19    35   1
@<TRIPOS>SUBSTRUCTURE
     1  MOL      1

