@<TRIPOS>MOLECULE
3owj_ligand_013
    35    38
SMALL
GAST_HUCK
****
This file was generated by PARSER (from files_GN.cpp)

@<TRIPOS>ATOM
      1 C1         23.5277    6.0935   10.8911 C.ar        1 MOL       0.0721
      2 O1         23.3765    5.7150    9.5989 O.3         1 MOL      -0.3416
      3 C2         23.6502    5.0977   11.8801 C.ar        1 MOL      -0.0447
      4 C3         23.7877    5.4547   13.2380 C.ar        1 MOL      -0.0486
      5 C4         23.7850    6.8180   13.5743 C.ar        1 MOL       0.0523
      6 C5         23.6743    7.8282   12.6108 C.ar        1 MOL      -0.0192
      7 C6         23.5393    7.4578   11.2514 C.ar        1 MOL      -0.0435
      8 N7         23.8506    7.3724   14.7859 N.pl3       1 MOL      -0.2844
      9 C8         23.7787    8.7096   14.6686 C.ar        1 MOL       0.0555
     10 C9         23.6755    9.0493   13.3139 C.ar        1 MOL      -0.0101
     11 C10        23.7911    9.6715   15.6976 C.ar        1 MOL      -0.0320
     12 C11        23.9163    9.2334   17.1180 C.3         1 MOL      -0.0404
     13 C12        23.6380   11.0408   15.3259 C.ar        1 MOL      -0.0484
     14 C13        23.4725   11.4069   13.9428 C.ar        1 MOL       0.0334
     15 C14        23.5963   10.4106   12.9174 C.ar        1 MOL      -0.0423
     16 C15        23.7005   10.7281   11.4640 C.3         1 MOL      -0.0337
     17 C16        23.6355   12.0617   16.2979 C.2         1 MOL      -0.0576
     18 C17        23.4252   13.3391   15.9463 C.2         1 MOL       0.0437
     19 N18        23.1608   13.6578   14.6795 N.am        1 MOL      -0.2303
     20 C19        23.1558   12.7678   13.6959 C.2         1 MOL       0.2129
     21 O19        22.7048   13.1882   12.6413 O.2         1 MOL      -0.4002
     22 H1         24.1199    6.1292    9.1041 H           1 MOL       0.2441
     23 H2         23.6239    4.1087   11.6194 H           1 MOL       0.0496
     24 H3         23.8647    4.7376   13.9593 H           1 MOL       0.0512
     25 H4         23.4094    8.1581   10.5232 H           1 MOL       0.0468
     26 H5         23.9105    6.8774   15.6177 H           1 MOL       0.2115
     27 H6         23.9888    8.1530   17.2337 H           1 MOL       0.0343
     28 H7         23.0415    9.5666   17.6827 H           1 MOL       0.0343
     29 H8         24.8148    9.6711   17.5620 H           1 MOL       0.0343
     30 H9         24.4915   10.1421   11.0058 H           1 MOL       0.0394
     31 H10        23.9747   11.7613   11.2627 H           1 MOL       0.0394
     32 H11        22.7465   10.5153   10.9742 H           1 MOL       0.0394
     33 H12        23.7961   11.8690   17.2577 H           1 MOL       0.0271
     34 H13        23.4202   14.0583   16.6348 H           1 MOL       0.1097
     35 H14        22.9198   14.5765   14.4782 H           1 MOL       0.2459
@<TRIPOS>BOND
     1     1     2   1
     2     1     3  ar
     3     1     7  ar
     4     3     4  ar
     5     4     5  ar
     6     5     6  ar
     7     5     8   1
     8     6     7  ar
     9     6    10   1
    10     8     9   1
    11     9    10  ar
    12     9    11  ar
    13    10    15  ar
    14    11    12   1
    15    11    13  ar
    16    13    14  ar
    17    13    17   1
    18    14    15  ar
    19    14    20   1
    20    15    16   1
    21    17    18   2
    22    18    19  am
    23    19    20  am
    24    20    21   2
    25     2    22   1
    26     3    23   1
    27     4    24   1
    28     7    25   1
    29     8    26   1
    30    12    27   1
    31    12    28   1
    32    12    29   1
    33    16    30   1
    34    16    31   1
    35    16    32   1
    36    17    33   1
    37    18    34   1
    38    19    35   1
@<TRIPOS>SUBSTRUCTURE
     1  MOL      1

