@<TRIPOS>MOLECULE
3owj_ligand_041
    35    38
SMALL
GAST_HUCK
****
This file was generated by PARSER (from files_GN.cpp)

@<TRIPOS>ATOM
      1 C1         22.5908    5.2806   18.7022 C.ar        1 MOL       0.0721
      2 O1         22.7566    6.0560   19.7997 O.3         1 MOL      -0.3416
      3 C2         22.2108    3.9300   18.8530 C.ar        1 MOL      -0.0447
      4 C3         22.0645    3.1044   17.7230 C.ar        1 MOL      -0.0486
      5 C4         22.2845    3.6589   16.4512 C.ar        1 MOL       0.0523
      6 C5         22.6427    5.0008   16.2767 C.ar        1 MOL      -0.0192
      7 C6         22.8192    5.8177   17.4162 C.ar        1 MOL      -0.0435
      8 N7         22.2152    3.0662   15.2545 N.pl3       1 MOL      -0.2844
      9 C8         22.5313    3.9580   14.2995 C.ar        1 MOL       0.0555
     10 C9         22.7800    5.2020   14.8932 C.ar        1 MOL      -0.0101
     11 C10        22.6027    3.7482   12.9086 C.ar        1 MOL      -0.0320
     12 C11        22.2929    2.4031   12.3462 C.3         1 MOL      -0.0404
     13 C12        23.0106    4.8480   12.0976 C.ar        1 MOL      -0.0484
     14 C13        23.2924    6.1296   12.6887 C.ar        1 MOL       0.0334
     15 C14        23.0690    6.3345   14.0890 C.ar        1 MOL      -0.0423
     16 C15        23.0184    7.6838   14.7176 C.3         1 MOL      -0.0337
     17 C16        23.1446    4.7079   10.7032 C.2         1 MOL      -0.0576
     18 C17        23.5712    5.7322    9.9501 C.2         1 MOL       0.0437
     19 N18        23.9211    6.8868   10.5129 N.am        1 MOL      -0.2303
     20 C19        23.8137    7.1172   11.8172 C.2         1 MOL       0.2129
     21 O19        24.3240    8.1608   12.1944 O.2         1 MOL      -0.4002
     22 H1         21.9192    6.5593   19.8774 H           1 MOL       0.2441
     23 H2         22.0513    3.5432   19.7859 H           1 MOL       0.0496
     24 H3         21.8171    2.1197   17.8262 H           1 MOL       0.0512
     25 H4         23.1325    6.7833   17.3336 H           1 MOL       0.0468
     26 H5         21.9597    2.1442   15.0890 H           1 MOL       0.2115
     27 H6         22.0225    1.6677   13.1029 H           1 MOL       0.0343
     28 H7         23.1647    2.0176   11.8187 H           1 MOL       0.0343
     29 H8         21.4579    2.4810   11.6476 H           1 MOL       0.0343
     30 H9         22.2013    7.7388   15.4376 H           1 MOL       0.0394
     31 H10        22.8053    8.4755   14.0024 H           1 MOL       0.0394
     32 H11        23.9642    7.8957   15.2180 H           1 MOL       0.0394
     33 H12        22.9361    3.8541   10.2463 H           1 MOL       0.0271
     34 H13        23.6685    5.6248    8.9688 H           1 MOL       0.1097
     35 H14        24.3213    7.5676    9.9494 H           1 MOL       0.2459
@<TRIPOS>BOND
     1     1     2   1
     2     1     3  ar
     3     1     7  ar
     4     3     4  ar
     5     4     5  ar
     6     5     6  ar
     7     5     8   1
     8     6     7  ar
     9     6    10   1
    10     8     9   1
    11     9    10  ar
    12     9    11  ar
    13    10    15  ar
    14    11    12   1
    15    11    13  ar
    16    13    14  ar
    17    13    17   1
    18    14    15  ar
    19    14    20   1
    20    15    16   1
    21    17    18   2
    22    18    19  am
    23    19    20  am
    24    20    21   2
    25     2    22   1
    26     3    23   1
    27     4    24   1
    28     7    25   1
    29     8    26   1
    30    12    27   1
    31    12    28   1
    32    12    29   1
    33    16    30   1
    34    16    31   1
    35    16    32   1
    36    17    33   1
    37    18    34   1
    38    19    35   1
@<TRIPOS>SUBSTRUCTURE
     1  MOL      1

