@<TRIPOS>MOLECULE
3owj_ligand_046
    35    38
SMALL
GAST_HUCK
****
This file was generated by PARSER (from files_GN.cpp)

@<TRIPOS>ATOM
      1 C1         19.7585   12.6920   17.4449 C.ar        1 MOL       0.0721
      2 O1         20.0579   11.3870   17.6346 O.3         1 MOL      -0.3416
      3 C2         18.9243   13.3683   18.3598 C.ar        1 MOL      -0.0447
      4 C3         18.6057   14.7256   18.1575 C.ar        1 MOL      -0.0486
      5 C4         19.1413   15.3827   17.0361 C.ar        1 MOL       0.0523
      6 C5         19.9836   14.7337   16.1260 C.ar        1 MOL      -0.0192
      7 C6         20.2851   13.3681   16.3245 C.ar        1 MOL      -0.0435
      8 N7         18.9493   16.6416   16.6328 N.pl3       1 MOL      -0.2844
      9 C8         19.6085   16.8464   15.4786 C.ar        1 MOL       0.0555
     10 C9         20.3099   15.6809   15.1388 C.ar        1 MOL      -0.0101
     11 C10        19.6380   18.0109   14.6835 C.ar        1 MOL      -0.0320
     12 C11        18.8505   19.2079   15.1017 C.3         1 MOL      -0.0404
     13 C12        20.3958   17.9667   13.4719 C.ar        1 MOL      -0.0484
     14 C13        21.1179   16.7760   13.1024 C.ar        1 MOL       0.0334
     15 C14        21.1495   15.6532   13.9941 C.ar        1 MOL      -0.0423
     16 C15        22.0756   14.4984   13.8293 C.3         1 MOL      -0.0337
     17 C16        20.4508   19.0786   12.6051 C.2         1 MOL      -0.0576
     18 C17        21.0926   18.9987   11.4280 C.2         1 MOL       0.0437
     19 N18        21.6754   17.8628   11.0470 N.am        1 MOL      -0.2303
     20 C19        21.7180   16.7831   11.8201 C.2         1 MOL       0.2129
     21 O19        22.1162   15.7823   11.2482 O.2         1 MOL      -0.4002
     22 H1         19.1942   10.9124   17.5335 H           1 MOL       0.2441
     23 H2         18.5399   12.8710   19.1668 H           1 MOL       0.0496
     24 H3         17.9917   15.2205   18.8095 H           1 MOL       0.0512
     25 H4         20.8531   12.8479   15.6586 H           1 MOL       0.0468
     26 H5         18.4078   17.2944   17.0992 H           1 MOL       0.2115
     27 H6         18.3200   19.0672   16.0426 H           1 MOL       0.0343
     28 H7         18.1049   19.4428   14.3401 H           1 MOL       0.0343
     29 H8         19.5197   20.0606   15.2262 H           1 MOL       0.0343
     30 H9         22.5061   14.2152   14.7911 H           1 MOL       0.0394
     31 H10        22.9355   14.7229   13.2031 H           1 MOL       0.0394
     32 H11        21.5343   13.6505   13.4055 H           1 MOL       0.0394
     33 H12        20.0011   19.9347   12.8303 H           1 MOL       0.0271
     34 H13        21.1018   19.7733   10.8106 H           1 MOL       0.1097
     35 H14        22.0302   17.8039   10.1391 H           1 MOL       0.2459
@<TRIPOS>BOND
     1     1     2   1
     2     1     3  ar
     3     1     7  ar
     4     3     4  ar
     5     4     5  ar
     6     5     6  ar
     7     5     8   1
     8     6     7  ar
     9     6    10   1
    10     8     9   1
    11     9    10  ar
    12     9    11  ar
    13    10    15  ar
    14    11    12   1
    15    11    13  ar
    16    13    14  ar
    17    13    17   1
    18    14    15  ar
    19    14    20   1
    20    15    16   1
    21    17    18   2
    22    18    19  am
    23    19    20  am
    24    20    21   2
    25     2    22   1
    26     3    23   1
    27     4    24   1
    28     7    25   1
    29     8    26   1
    30    12    27   1
    31    12    28   1
    32    12    29   1
    33    16    30   1
    34    16    31   1
    35    16    32   1
    36    17    33   1
    37    18    34   1
    38    19    35   1
@<TRIPOS>SUBSTRUCTURE
     1  MOL      1

