@<TRIPOS>MOLECULE
3owj_ligand_009
    35    38
SMALL
GAST_HUCK
****
This file was generated by PARSER (from files_GN.cpp)

@<TRIPOS>ATOM
      1 C1         22.2591    3.1828   15.0036 C.ar        1 MOL       0.0721
      2 O1         21.9111    2.5442   16.1476 O.3         1 MOL      -0.3416
      3 C2         22.5803    2.4302   13.8507 C.ar        1 MOL      -0.0447
      4 C3         22.9260    3.0808   12.6516 C.ar        1 MOL      -0.0486
      5 C4         22.9606    4.4848   12.6403 C.ar        1 MOL       0.0523
      6 C5         22.6766    5.2539   13.7737 C.ar        1 MOL      -0.0192
      7 C6         22.3269    4.5936   14.9709 C.ar        1 MOL      -0.0435
      8 N7         23.2704    5.2988   11.6292 N.pl3       1 MOL      -0.2844
      9 C8         23.2288    6.5737   12.0568 C.ar        1 MOL       0.0555
     10 C9         22.8624    6.5983   13.4075 C.ar        1 MOL      -0.0101
     11 C10        23.4794    7.7453   11.3135 C.ar        1 MOL      -0.0320
     12 C11        23.7288    7.6369    9.8490 C.3         1 MOL      -0.0404
     13 C12        23.4936    8.9858   12.0162 C.ar        1 MOL      -0.0484
     14 C13        23.1956    9.0220   13.4240 C.ar        1 MOL       0.0334
     15 C14        22.7472    7.8338   14.0925 C.ar        1 MOL      -0.0423
     16 C15        22.0931    7.8502   15.4325 C.3         1 MOL      -0.0337
     17 C16        23.8111   10.1967   11.3684 C.2         1 MOL      -0.0576
     18 C17        23.9135   11.3401   12.0645 C.2         1 MOL       0.0437
     19 N18        23.7473   11.3448   13.3876 N.am        1 MOL      -0.2303
     20 C19        23.4067   10.2617   14.0762 C.2         1 MOL       0.2129
     21 O19        23.4652   10.3967   15.2889 O.2         1 MOL      -0.4002
     22 H1         21.2892    3.1516   16.6171 H           1 MOL       0.2441
     23 H2         22.5559    1.4087   13.8813 H           1 MOL       0.0496
     24 H3         23.1608    2.5460   11.8094 H           1 MOL       0.0512
     25 H4         22.1289    5.1152   15.8236 H           1 MOL       0.0468
     26 H5         23.5160    5.0047   10.7349 H           1 MOL       0.2115
     27 H6         23.6947    6.6137    9.4789 H           1 MOL       0.0343
     28 H7         24.7080    8.0375    9.6039 H           1 MOL       0.0343
     29 H8         22.9616    8.1955    9.3133 H           1 MOL       0.0343
     30 H9         21.2099    7.2102   15.4245 H           1 MOL       0.0394
     31 H10        21.7221    8.8322   15.7105 H           1 MOL       0.0394
     32 H11        22.7945    7.5012   16.1913 H           1 MOL       0.0394
     33 H12        23.9787   10.2362   10.3909 H           1 MOL       0.0271
     34 H13        24.1549   12.1905   11.6068 H           1 MOL       0.1097
     35 H14        23.9232   12.1702   13.8678 H           1 MOL       0.2459
@<TRIPOS>BOND
     1     1     2   1
     2     1     3  ar
     3     1     7  ar
     4     3     4  ar
     5     4     5  ar
     6     5     6  ar
     7     5     8   1
     8     6     7  ar
     9     6    10   1
    10     8     9   1
    11     9    10  ar
    12     9    11  ar
    13    10    15  ar
    14    11    12   1
    15    11    13  ar
    16    13    14  ar
    17    13    17   1
    18    14    15  ar
    19    14    20   1
    20    15    16   1
    21    17    18   2
    22    18    19  am
    23    19    20  am
    24    20    21   2
    25     2    22   1
    26     3    23   1
    27     4    24   1
    28     7    25   1
    29     8    26   1
    30    12    27   1
    31    12    28   1
    32    12    29   1
    33    16    30   1
    34    16    31   1
    35    16    32   1
    36    17    33   1
    37    18    34   1
    38    19    35   1
@<TRIPOS>SUBSTRUCTURE
     1  MOL      1

