@<TRIPOS>MOLECULE
3owj_ligand_011
    35    38
SMALL
GAST_HUCK
****
This file was generated by PARSER (from files_GN.cpp)

@<TRIPOS>ATOM
      1 C1         22.8920    9.9511   19.8774 C.ar        1 MOL       0.0721
      2 O1         22.8248   10.8843   20.8592 O.3         1 MOL      -0.3416
      3 C2         23.2030    8.6189   20.2237 C.ar        1 MOL      -0.0447
      4 C3         23.3351    7.6373   19.2226 C.ar        1 MOL      -0.0486
      5 C4         23.1123    8.0116   17.8871 C.ar        1 MOL       0.0523
      6 C5         22.7532    9.3132   17.5227 C.ar        1 MOL      -0.0192
      7 C6         22.6672   10.3030   18.5274 C.ar        1 MOL      -0.0435
      8 N7         23.2071    7.2599   16.7853 N.pl3       1 MOL      -0.2844
      9 C8         22.9218    8.0117   15.7086 C.ar        1 MOL       0.0555
     10 C9         22.6030    9.3123   16.1267 C.ar        1 MOL      -0.0101
     11 C10        22.9067    7.6241   14.3526 C.ar        1 MOL      -0.0320
     12 C11        23.2125    6.2105   13.9895 C.3         1 MOL      -0.0404
     13 C12        22.6221    8.6302   13.3808 C.ar        1 MOL      -0.0484
     14 C13        22.3317    9.9789   13.7878 C.ar        1 MOL       0.0334
     15 C14        22.2105   10.2948   15.1817 C.ar        1 MOL      -0.0423
     16 C15        21.5897   11.5529   15.6800 C.3         1 MOL      -0.0337
     17 C16        22.6134    8.3278   12.0035 C.2         1 MOL      -0.0576
     18 C17        22.3899    9.2897   11.0937 C.2         1 MOL       0.0437
     19 N18        22.2177   10.5537   11.4722 N.am        1 MOL      -0.2303
     20 C19        22.1977   10.9323   12.7464 C.2         1 MOL       0.2129
     21 O19        22.1820   12.1414   12.9197 O.2         1 MOL      -0.4002
     22 H1         23.3449   11.6493   20.5285 H           1 MOL       0.2441
     23 H2         23.3710    8.3693   21.2015 H           1 MOL       0.0496
     24 H3         23.5872    6.6793   19.4623 H           1 MOL       0.0512
     25 H4         22.4673   11.2753   18.2970 H           1 MOL       0.0468
     26 H5         23.4599    6.3238   16.7733 H           1 MOL       0.2115
     27 H6         23.4117    5.5757   14.8531 H           1 MOL       0.0343
     28 H7         24.0956    6.1802   13.3500 H           1 MOL       0.0343
     29 H8         22.3656    5.7769   13.4551 H           1 MOL       0.0343
     30 H9         20.9476   11.3493   16.5382 H           1 MOL       0.0394
     31 H10        20.9289   12.0178   14.9483 H           1 MOL       0.0394
     32 H11        22.3679   12.2631   15.9656 H           1 MOL       0.0394
     33 H12        22.7671    7.4055   11.6715 H           1 MOL       0.0271
     34 H13        22.3793    9.0725   10.1261 H           1 MOL       0.1097
     35 H14        22.1351   11.2331   10.7828 H           1 MOL       0.2459
@<TRIPOS>BOND
     1     1     2   1
     2     1     3  ar
     3     1     7  ar
     4     3     4  ar
     5     4     5  ar
     6     5     6  ar
     7     5     8   1
     8     6     7  ar
     9     6    10   1
    10     8     9   1
    11     9    10  ar
    12     9    11  ar
    13    10    15  ar
    14    11    12   1
    15    11    13  ar
    16    13    14  ar
    17    13    17   1
    18    14    15  ar
    19    14    20   1
    20    15    16   1
    21    17    18   2
    22    18    19  am
    23    19    20  am
    24    20    21   2
    25     2    22   1
    26     3    23   1
    27     4    24   1
    28     7    25   1
    29     8    26   1
    30    12    27   1
    31    12    28   1
    32    12    29   1
    33    16    30   1
    34    16    31   1
    35    16    32   1
    36    17    33   1
    37    18    34   1
    38    19    35   1
@<TRIPOS>SUBSTRUCTURE
     1  MOL      1

