@<TRIPOS>MOLECULE
3owj_ligand_053
    35    38
SMALL
GAST_HUCK
****
This file was generated by PARSER (from files_GN.cpp)

@<TRIPOS>ATOM
      1 C1         24.0996   15.0759   20.5222 C.ar        1 MOL       0.0721
      2 O1         24.3503   16.0858   19.6561 O.3         1 MOL      -0.3416
      3 C2         22.8330   14.4557   20.5267 C.ar        1 MOL      -0.0447
      4 C3         22.5536   13.4193   21.4381 C.ar        1 MOL      -0.0486
      5 C4         23.5672   13.0151   22.3239 C.ar        1 MOL       0.0523
      6 C5         24.8385   13.5975   22.3202 C.ar        1 MOL      -0.0192
      7 C6         25.1031   14.6576   21.4237 C.ar        1 MOL      -0.0435
      8 N7         23.5159   12.0837   23.2802 N.pl3       1 MOL      -0.2844
      9 C8         24.7029   12.0275   23.9120 C.ar        1 MOL       0.0555
     10 C9         25.5802   12.9460   23.3202 C.ar        1 MOL      -0.0101
     11 C10        25.0782   11.2008   24.9898 C.ar        1 MOL      -0.0320
     12 C11        24.0967   10.2260   25.5475 C.3         1 MOL      -0.0404
     13 C12        26.3912   11.3684   25.5232 C.ar        1 MOL      -0.0484
     14 C13        27.2968   12.3293   24.9480 C.ar        1 MOL       0.0334
     15 C14        26.9233   13.0450   23.7644 C.ar        1 MOL      -0.0423
     16 C15        27.8966   13.7980   22.9239 C.3         1 MOL      -0.0337
     17 C16        26.8345   10.6017   26.6204 C.2         1 MOL      -0.0576
     18 C17        28.0505   10.8082   27.1487 C.2         1 MOL       0.0437
     19 N18        28.8495   11.7584   26.6688 N.am        1 MOL      -0.2303
     20 C19        28.5225   12.5207   25.6322 C.2         1 MOL       0.2129
     21 O19        29.2811   13.4578   25.4331 O.2         1 MOL      -0.4002
     22 H1         24.6991   15.6428   18.8540 H           1 MOL       0.2441
     23 H2         22.1076   14.7652   19.8752 H           1 MOL       0.0496
     24 H3         21.6341   12.9745   21.4600 H           1 MOL       0.0512
     25 H4         25.9994   15.1409   21.4234 H           1 MOL       0.0468
     26 H5         22.7359   11.5484   23.4920 H           1 MOL       0.2115
     27 H6         23.1401   10.2282   25.0248 H           1 MOL       0.0343
     28 H7         23.8995   10.4593   26.5952 H           1 MOL       0.0343
     29 H8         24.5016    9.2156   25.4767 H           1 MOL       0.0343
     30 H9         27.6990   13.6267   21.8646 H           1 MOL       0.0394
     31 H10        28.9228   13.4670   23.0673 H           1 MOL       0.0394
     32 H11        27.8291   14.8648   23.1424 H           1 MOL       0.0394
     33 H12        26.2660    9.8984   27.0294 H           1 MOL       0.0271
     34 H13        28.3524   10.2821   27.9324 H           1 MOL       0.1097
     35 H14        29.6893   11.9272   27.1257 H           1 MOL       0.2459
@<TRIPOS>BOND
     1     1     2   1
     2     1     3  ar
     3     1     7  ar
     4     3     4  ar
     5     4     5  ar
     6     5     6  ar
     7     5     8   1
     8     6     7  ar
     9     6    10   1
    10     8     9   1
    11     9    10  ar
    12     9    11  ar
    13    10    15  ar
    14    11    12   1
    15    11    13  ar
    16    13    14  ar
    17    13    17   1
    18    14    15  ar
    19    14    20   1
    20    15    16   1
    21    17    18   2
    22    18    19  am
    23    19    20  am
    24    20    21   2
    25     2    22   1
    26     3    23   1
    27     4    24   1
    28     7    25   1
    29     8    26   1
    30    12    27   1
    31    12    28   1
    32    12    29   1
    33    16    30   1
    34    16    31   1
    35    16    32   1
    36    17    33   1
    37    18    34   1
    38    19    35   1
@<TRIPOS>SUBSTRUCTURE
     1  MOL      1

