@<TRIPOS>MOLECULE
3owj_ligand_004
    35    38
SMALL
GAST_HUCK
****
This file was generated by PARSER (from files_GN.cpp)

@<TRIPOS>ATOM
      1 C1         23.5568    8.4912   18.1022 C.ar        1 MOL       0.0721
      2 O1         23.4272    8.5410   19.4514 O.3         1 MOL      -0.3416
      3 C2         23.8550    9.6711   17.3920 C.ar        1 MOL      -0.0447
      4 C3         23.9744    9.6433   15.9895 C.ar        1 MOL      -0.0486
      5 C4         23.8017    8.4161   15.3257 C.ar        1 MOL       0.0523
      6 C5         23.5297    7.2280   16.0103 C.ar        1 MOL      -0.0192
      7 C6         23.3833    7.2675   17.4168 C.ar        1 MOL      -0.0435
      8 N7         23.8550    8.1648   14.0151 N.pl3       1 MOL      -0.2844
      9 C8         23.6201    6.8559   13.8043 C.ar        1 MOL       0.0555
     10 C9         23.4353    6.2177   15.0374 C.ar        1 MOL      -0.0101
     11 C10        23.5640    6.1687   12.5744 C.ar        1 MOL      -0.0320
     12 C11        23.8068    6.9109   11.3039 C.3         1 MOL      -0.0404
     13 C12        23.2418    4.7789   12.6090 C.ar        1 MOL      -0.0484
     14 C13        23.0305    4.1076   13.8654 C.ar        1 MOL       0.0334
     15 C14        23.2364    4.8141   15.0958 C.ar        1 MOL      -0.0423
     16 C15        23.3544    4.1345   16.4175 C.3         1 MOL      -0.0337
     17 C16        23.1277    4.0298   11.4198 C.2         1 MOL      -0.0576
     18 C17        22.7697    2.7384   11.4593 C.2         1 MOL       0.0437
     19 N18        22.4967    2.1426   12.6158 N.am        1 MOL      -0.2303
     20 C19        22.5977    2.7591   13.7879 C.2         1 MOL       0.2129
     21 O19        22.2005    2.1042   14.7410 O.2         1 MOL      -0.4002
     22 H1         24.2400    8.1108   19.7968 H           1 MOL       0.2441
     23 H2         23.9761   10.5539   17.8942 H           1 MOL       0.0496
     24 H3         24.1763   10.4957   15.4666 H           1 MOL       0.0512
     25 H4         23.1382    6.4335   17.9473 H           1 MOL       0.0468
     26 H5         24.0250    8.8257   13.3292 H           1 MOL       0.2115
     27 H6         24.0403    7.9656   11.4564 H           1 MOL       0.0343
     28 H7         22.9185    6.8605   10.6728 H           1 MOL       0.0343
     29 H8         24.6500    6.4659   10.7722 H           1 MOL       0.0343
     30 H9         24.1560    4.5840   17.0029 H           1 MOL       0.0394
     31 H10        23.6388    3.0890   16.3350 H           1 MOL       0.0394
     32 H11        22.4136    4.2119   16.9625 H           1 MOL       0.0394
     33 H12        23.3101    4.4314   10.5304 H           1 MOL       0.0271
     34 H13        22.6883    2.2135   10.6214 H           1 MOL       0.1097
     35 H14        22.1883    1.2229   12.5999 H           1 MOL       0.2459
@<TRIPOS>BOND
     1     1     2   1
     2     1     3  ar
     3     1     7  ar
     4     3     4  ar
     5     4     5  ar
     6     5     6  ar
     7     5     8   1
     8     6     7  ar
     9     6    10   1
    10     8     9   1
    11     9    10  ar
    12     9    11  ar
    13    10    15  ar
    14    11    12   1
    15    11    13  ar
    16    13    14  ar
    17    13    17   1
    18    14    15  ar
    19    14    20   1
    20    15    16   1
    21    17    18   2
    22    18    19  am
    23    19    20  am
    24    20    21   2
    25     2    22   1
    26     3    23   1
    27     4    24   1
    28     7    25   1
    29     8    26   1
    30    12    27   1
    31    12    28   1
    32    12    29   1
    33    16    30   1
    34    16    31   1
    35    16    32   1
    36    17    33   1
    37    18    34   1
    38    19    35   1
@<TRIPOS>SUBSTRUCTURE
     1  MOL      1

