@<TRIPOS>MOLECULE
3owj_ligand_029
    35    38
SMALL
GAST_HUCK
****
This file was generated by PARSER (from files_GN.cpp)

@<TRIPOS>ATOM
      1 C1         21.6949   14.7740   12.8041 C.ar        1 MOL       0.0721
      2 O1         21.8188   15.6739   11.7980 O.3         1 MOL      -0.3416
      3 C2         21.2348   15.1789   14.0754 C.ar        1 MOL      -0.0447
      4 C3         21.1462   14.2463   15.1270 C.ar        1 MOL      -0.0486
      5 C4         21.4955   12.9099   14.8698 C.ar        1 MOL       0.0523
      6 C5         21.9134   12.4778   13.6072 C.ar        1 MOL      -0.0192
      7 C6         22.0428   13.4275   12.5688 C.ar        1 MOL      -0.0435
      8 N7         21.5078   11.8727   15.7124 N.pl3       1 MOL      -0.2844
      9 C8         21.9129   10.7698   15.0567 C.ar        1 MOL       0.0555
     10 C9         22.1569   11.0970   13.7170 C.ar        1 MOL      -0.0101
     11 C10        22.0624    9.4616   15.5596 C.ar        1 MOL      -0.0320
     12 C11        21.7196    9.1739   16.9822 C.3         1 MOL      -0.0404
     13 C12        22.5525    8.4613   14.6658 C.ar        1 MOL      -0.0484
     14 C13        22.8418    8.7871   13.2927 C.ar        1 MOL       0.0334
     15 C14        22.5354   10.0929   12.7877 C.ar        1 MOL      -0.0423
     16 C15        22.4834   10.4178   11.3346 C.3         1 MOL      -0.0337
     17 C16        22.7596    7.1352   15.0989 C.2         1 MOL      -0.0576
     18 C17        23.2696    6.2154   14.2652 C.2         1 MOL       0.0437
     19 N18        23.6221    6.5464   13.0249 N.am        1 MOL      -0.2303
     20 C19        23.4495    7.7624   12.5230 C.2         1 MOL       0.2129
     21 O19        23.9710    7.9424   11.4336 O.2         1 MOL      -0.4002
     22 H1         20.9896   16.2075   11.8163 H           1 MOL       0.2441
     23 H2         20.9763   16.1537   14.2406 H           1 MOL       0.0496
     24 H3         20.8358   14.5357   16.0567 H           1 MOL       0.0512
     25 H4         22.3936   13.1632   11.6498 H           1 MOL       0.0468
     26 H5         21.2681   11.9197   16.6504 H           1 MOL       0.2115
     27 H6         21.3548   10.0462   17.5240 H           1 MOL       0.0343
     28 H7         22.6034    8.8064   17.5075 H           1 MOL       0.0343
     29 H8         20.9363    8.4151   17.0238 H           1 MOL       0.0343
     30 H9         21.6079   11.0307   11.1176 H           1 MOL       0.0394
     31 H10        22.3664    9.5404   10.7036 H           1 MOL       0.0394
     32 H11        23.3863   10.9533   11.0379 H           1 MOL       0.0394
     33 H12        22.5359    6.8487   16.0224 H           1 MOL       0.0271
     34 H13        23.4219    5.2850   14.5763 H           1 MOL       0.1097
     35 H14        24.0605    5.8749   12.4765 H           1 MOL       0.2459
@<TRIPOS>BOND
     1     1     2   1
     2     1     3  ar
     3     1     7  ar
     4     3     4  ar
     5     4     5  ar
     6     5     6  ar
     7     5     8   1
     8     6     7  ar
     9     6    10   1
    10     8     9   1
    11     9    10  ar
    12     9    11  ar
    13    10    15  ar
    14    11    12   1
    15    11    13  ar
    16    13    14  ar
    17    13    17   1
    18    14    15  ar
    19    14    20   1
    20    15    16   1
    21    17    18   2
    22    18    19  am
    23    19    20  am
    24    20    21   2
    25     2    22   1
    26     3    23   1
    27     4    24   1
    28     7    25   1
    29     8    26   1
    30    12    27   1
    31    12    28   1
    32    12    29   1
    33    16    30   1
    34    16    31   1
    35    16    32   1
    36    17    33   1
    37    18    34   1
    38    19    35   1
@<TRIPOS>SUBSTRUCTURE
     1  MOL      1

