@<TRIPOS>MOLECULE
3owj_ligand_049
    35    38
SMALL
GAST_HUCK
****
This file was generated by PARSER (from files_GN.cpp)

@<TRIPOS>ATOM
      1 C1         22.5891   12.1422   18.5377 C.ar        1 MOL       0.0721
      2 O1         22.2904   12.5854   19.7815 O.3         1 MOL      -0.3416
      3 C2         22.9628   10.7952   18.3397 C.ar        1 MOL      -0.0447
      4 C3         23.3270   10.3417   17.0570 C.ar        1 MOL      -0.0486
      5 C4         23.2979   11.2554   15.9903 C.ar        1 MOL       0.0523
      6 C5         22.9102   12.5885   16.1599 C.ar        1 MOL      -0.0192
      7 C6         22.5694   13.0434   17.4524 C.ar        1 MOL      -0.0435
      8 N7         23.6286   11.0576   14.7104 N.pl3       1 MOL      -0.2844
      9 C8         23.4820   12.2095   14.0301 C.ar        1 MOL       0.0555
     10 C9         23.0058   13.1995   14.8992 C.ar        1 MOL      -0.0101
     11 C10        23.7294   12.4513   12.6641 C.ar        1 MOL      -0.0320
     12 C11        24.1997   11.3355   11.7940 C.3         1 MOL      -0.0404
     13 C12        23.5412   13.7830   12.1862 C.ar        1 MOL      -0.0484
     14 C13        23.0885   14.8236   13.0724 C.ar        1 MOL       0.0334
     15 C14        22.7119   14.5009   14.4164 C.ar        1 MOL      -0.0423
     16 C15        21.9336   15.4252   15.2888 C.3         1 MOL      -0.0337
     17 C16        23.7899   14.1132   10.8397 C.2         1 MOL      -0.0576
     18 C17        23.6846   15.3813   10.4124 C.2         1 MOL       0.0437
     19 N18        23.3543   16.3547   11.2592 N.am        1 MOL      -0.2303
     20 C19        23.0718   16.1362   12.5384 C.2         1 MOL       0.2129
     21 O19        22.9439   17.1488   13.2094 O.2         1 MOL      -0.4002
     22 H1         23.1676   12.7131   20.1975 H           1 MOL       0.2441
     23 H2         22.9863   10.1484   19.1302 H           1 MOL       0.0496
     24 H3         23.6188    9.3736   16.9066 H           1 MOL       0.0512
     25 H4         22.3404   14.0201   17.6264 H           1 MOL       0.0468
     26 H5         23.9412   10.2170   14.3413 H           1 MOL       0.2115
     27 H6         24.2936   10.3859   12.3203 H           1 MOL       0.0343
     28 H7         25.1801   11.5793   11.3821 H           1 MOL       0.0343
     29 H8         23.4935   11.1851   10.9759 H           1 MOL       0.0343
     30 H9         21.1658   14.8764   15.8348 H           1 MOL       0.0394
     31 H10        21.3831   16.1752   14.7258 H           1 MOL       0.0394
     32 H11        22.6009   15.9230   15.9941 H           1 MOL       0.0394
     33 H12        24.0407   13.4220   10.1765 H           1 MOL       0.0271
     34 H13        23.8723   15.6103    9.4643 H           1 MOL       0.1097
     35 H14        23.3497   17.2684   10.9312 H           1 MOL       0.2459
@<TRIPOS>BOND
     1     1     2   1
     2     1     3  ar
     3     1     7  ar
     4     3     4  ar
     5     4     5  ar
     6     5     6  ar
     7     5     8   1
     8     6     7  ar
     9     6    10   1
    10     8     9   1
    11     9    10  ar
    12     9    11  ar
    13    10    15  ar
    14    11    12   1
    15    11    13  ar
    16    13    14  ar
    17    13    17   1
    18    14    15  ar
    19    14    20   1
    20    15    16   1
    21    17    18   2
    22    18    19  am
    23    19    20  am
    24    20    21   2
    25     2    22   1
    26     3    23   1
    27     4    24   1
    28     7    25   1
    29     8    26   1
    30    12    27   1
    31    12    28   1
    32    12    29   1
    33    16    30   1
    34    16    31   1
    35    16    32   1
    36    17    33   1
    37    18    34   1
    38    19    35   1
@<TRIPOS>SUBSTRUCTURE
     1  MOL      1

