@<TRIPOS>MOLECULE
3owj_ligand_036
    35    38
SMALL
GAST_HUCK
****
This file was generated by PARSER (from files_GN.cpp)

@<TRIPOS>ATOM
      1 C1         18.0765    3.2642   20.6417 C.ar        1 MOL       0.0721
      2 O1         16.9845    2.5516   20.2651 O.3         1 MOL      -0.3416
      3 C2         18.4933    3.3108   21.9910 C.ar        1 MOL      -0.0447
      4 C3         19.6138    4.0858   22.3603 C.ar        1 MOL      -0.0486
      5 C4         20.3167    4.7726   21.3537 C.ar        1 MOL       0.0523
      6 C5         19.9388    4.7054   20.0101 C.ar        1 MOL      -0.0192
      7 C6         18.7887    3.9724   19.6531 C.ar        1 MOL      -0.0435
      8 N7         21.3767    5.5821   21.4647 N.pl3       1 MOL      -0.2844
      9 C8         21.7082    6.0479   20.2460 C.ar        1 MOL       0.0555
     10 C9         20.8473    5.4936   19.2925 C.ar        1 MOL      -0.0101
     11 C10        22.7408    6.9408   19.8940 C.ar        1 MOL      -0.0320
     12 C11        23.6438    7.4627   20.9525 C.3         1 MOL      -0.0404
     13 C12        22.8524    7.3339   18.5278 C.ar        1 MOL      -0.0484
     14 C13        21.9572    6.7921   17.5412 C.ar        1 MOL       0.0334
     15 C14        21.0206    5.7747   17.9125 C.ar        1 MOL      -0.0423
     16 C15        20.2753    4.9459   16.9268 C.3         1 MOL      -0.0337
     17 C16        23.8316    8.2593   18.1110 C.2         1 MOL      -0.0576
     18 C17        23.8883    8.6670   16.8337 C.2         1 MOL       0.0437
     19 N18        23.0008    8.2279   15.9423 N.am        1 MOL      -0.2303
     20 C19        22.0543    7.3441   16.2392 C.2         1 MOL       0.2129
     21 O19        21.2226    7.1787   15.3595 O.2         1 MOL      -0.4002
     22 H1         17.1021    1.6569   20.6455 H           1 MOL       0.2441
     23 H2         17.9664    2.8031   22.7046 H           1 MOL       0.0496
     24 H3         19.9025    4.1467   23.3375 H           1 MOL       0.0512
     25 H4         18.4525    3.9495   18.6927 H           1 MOL       0.0468
     26 H5         21.8138    5.8140   22.2972 H           1 MOL       0.2115
     27 H6         23.4104    7.0678   21.9357 H           1 MOL       0.0343
     28 H7         23.5582    8.5489   21.0082 H           1 MOL       0.0343
     29 H8         24.6749    7.1874   20.7248 H           1 MOL       0.0343
     30 H9         20.2471    3.9046   17.2483 H           1 MOL       0.0394
     31 H10        20.7586    4.9167   15.9540 H           1 MOL       0.0394
     32 H11        19.2593    5.3266   16.8169 H           1 MOL       0.0394
     33 H12        24.5031    8.6275   18.7441 H           1 MOL       0.0271
     34 H13        24.5748    9.3220   16.5454 H           1 MOL       0.1097
     35 H14        23.0264    8.5989   15.0470 H           1 MOL       0.2459
@<TRIPOS>BOND
     1     1     2   1
     2     1     3  ar
     3     1     7  ar
     4     3     4  ar
     5     4     5  ar
     6     5     6  ar
     7     5     8   1
     8     6     7  ar
     9     6    10   1
    10     8     9   1
    11     9    10  ar
    12     9    11  ar
    13    10    15  ar
    14    11    12   1
    15    11    13  ar
    16    13    14  ar
    17    13    17   1
    18    14    15  ar
    19    14    20   1
    20    15    16   1
    21    17    18   2
    22    18    19  am
    23    19    20  am
    24    20    21   2
    25     2    22   1
    26     3    23   1
    27     4    24   1
    28     7    25   1
    29     8    26   1
    30    12    27   1
    31    12    28   1
    32    12    29   1
    33    16    30   1
    34    16    31   1
    35    16    32   1
    36    17    33   1
    37    18    34   1
    38    19    35   1
@<TRIPOS>SUBSTRUCTURE
     1  MOL      1

