@<TRIPOS>MOLECULE
3owj_ligand_001
    35    38
SMALL
GAST_HUCK
****
This file was generated by PARSER (from files_GN.cpp)

@<TRIPOS>ATOM
      1 C1         23.2400   11.5428   17.4224 C.ar        1 MOL       0.0721
      2 O1         23.2012   12.8763   17.6495 O.3         1 MOL      -0.3416
      3 C2         23.2776   10.6237   18.4979 C.ar        1 MOL      -0.0447
      4 C3         23.3680    9.2414   18.2460 C.ar        1 MOL      -0.0486
      5 C4         23.3986    8.8038   16.9117 C.ar        1 MOL       0.0523
      6 C5         23.3320    9.6929   15.8328 C.ar        1 MOL      -0.0192
      7 C6         23.2704   11.0782   16.0914 C.ar        1 MOL      -0.0435
      8 N7         23.5058    7.5573   16.4432 N.pl3       1 MOL      -0.2844
      9 C8         23.5220    7.5856   15.0989 C.ar        1 MOL       0.0555
     10 C9         23.3872    8.9106   14.6653 C.ar        1 MOL      -0.0101
     11 C10        23.6420    6.5003   14.2052 C.ar        1 MOL      -0.0320
     12 C11        23.7483    5.1139   14.7422 C.3         1 MOL      -0.0404
     13 C12        23.6852    6.7969   12.8092 C.ar        1 MOL      -0.0484
     14 C13        23.5717    8.1539   12.3435 C.ar        1 MOL       0.0334
     15 C14        23.3138    9.2087   13.2799 C.ar        1 MOL      -0.0423
     16 C15        22.8673   10.5704   12.8706 C.3         1 MOL      -0.0337
     17 C16        23.8342    5.7701   11.8541 C.2         1 MOL      -0.0576
     18 C17        23.9243    6.0613   10.5481 C.2         1 MOL       0.0437
     19 N18        23.9136    7.3209   10.1289 N.am        1 MOL      -0.2303
     20 C19        23.7588    8.3538   10.9524 C.2         1 MOL       0.2129
     21 O19        23.9577    9.4503   10.4474 O.2         1 MOL      -0.4002
     22 H1         23.8936   13.0372   18.3197 H           1 MOL       0.2441
     23 H2         23.2498   10.9580   19.4629 H           1 MOL       0.0496
     24 H3         23.4105    8.5695   19.0158 H           1 MOL       0.0512
     25 H4         23.2801   11.7594   15.3337 H           1 MOL       0.0468
     26 H5         23.5832    6.7633   16.9950 H           1 MOL       0.2115
     27 H6         23.7023    5.0657   15.8301 H           1 MOL       0.0343
     28 H7         24.6977    4.6717   14.4343 H           1 MOL       0.0343
     29 H8         22.9278    4.5077   14.3539 H           1 MOL       0.0343
     30 H9         22.0798   10.9297   13.5332 H           1 MOL       0.0394
     31 H10        22.4183   10.5871   11.8794 H           1 MOL       0.0394
     32 H11        23.7113   11.2611   12.8948 H           1 MOL       0.0394
     33 H12        23.8758    4.8143   12.1150 H           1 MOL       0.0271
     34 H13        24.0382    5.3394    9.8766 H           1 MOL       0.1097
     35 H14        24.0802    7.4857    9.1873 H           1 MOL       0.2459
@<TRIPOS>BOND
     1     1     2   1
     2     1     3  ar
     3     1     7  ar
     4     3     4  ar
     5     4     5  ar
     6     5     6  ar
     7     5     8   1
     8     6     7  ar
     9     6    10   1
    10     8     9   1
    11     9    10  ar
    12     9    11  ar
    13    10    15  ar
    14    11    12   1
    15    11    13  ar
    16    13    14  ar
    17    13    17   1
    18    14    15  ar
    19    14    20   1
    20    15    16   1
    21    17    18   2
    22    18    19  am
    23    19    20  am
    24    20    21   2
    25     2    22   1
    26     3    23   1
    27     4    24   1
    28     7    25   1
    29     8    26   1
    30    12    27   1
    31    12    28   1
    32    12    29   1
    33    16    30   1
    34    16    31   1
    35    16    32   1
    36    17    33   1
    37    18    34   1
    38    19    35   1
@<TRIPOS>SUBSTRUCTURE
     1  MOL      1

