@<TRIPOS>MOLECULE
3owj_ligand_020
    35    38
SMALL
GAST_HUCK
****
This file was generated by PARSER (from files_GN.cpp)

@<TRIPOS>ATOM
      1 C1         21.0642   13.1312   15.0403 C.ar        1 MOL       0.0721
      2 O1         20.7182   14.3844   14.6627 O.3         1 MOL      -0.3416
      3 C2         20.8860   12.7149   16.3779 C.ar        1 MOL      -0.0447
      4 C3         21.2158   11.4005   16.7620 C.ar        1 MOL      -0.0486
      5 C4         21.6976   10.5171   15.7811 C.ar        1 MOL       0.0523
      6 C5         21.8663   10.9009   14.4466 C.ar        1 MOL      -0.0192
      7 C6         21.5685   12.2313   14.0782 C.ar        1 MOL      -0.0435
      8 N7         22.0587    9.2392   15.9178 N.pl3       1 MOL      -0.2844
      9 C8         22.4602    8.7587   14.7264 C.ar        1 MOL       0.0555
     10 C9         22.3407    9.7666   13.7607 C.ar        1 MOL      -0.0101
     11 C10        22.9123    7.4587   14.4195 C.ar        1 MOL      -0.0320
     12 C11        22.9569    6.4220   15.4880 C.3         1 MOL      -0.0404
     13 C12        23.3277    7.1994   13.0792 C.ar        1 MOL      -0.0484
     14 C13        23.2518    8.2350   12.0828 C.ar        1 MOL       0.0334
     15 C14        22.6513    9.4972   12.4021 C.ar        1 MOL      -0.0423
     16 C15        22.2640   10.4943   11.3638 C.3         1 MOL      -0.0337
     17 C16        23.8099    5.9301   12.6954 C.2         1 MOL      -0.0576
     18 C17        24.2303    5.7095   11.4402 C.2         1 MOL       0.0437
     19 N18        24.2487    6.6976   10.5484 N.am        1 MOL      -0.2303
     20 C19        23.8112    7.9226   10.8212 C.2         1 MOL       0.2129
     21 O19        24.0607    8.7574    9.9664 O.2         1 MOL      -0.4002
     22 H1         21.3892   14.9700   15.0819 H           1 MOL       0.2441
     23 H2         20.5127   13.3661   17.0725 H           1 MOL       0.0496
     24 H3         21.1000   11.0921   17.7300 H           1 MOL       0.0512
     25 H4         21.7210   12.5660   13.1278 H           1 MOL       0.0468
     26 H5         22.0310    8.7400   16.7495 H           1 MOL       0.2115
     27 H6         22.5969    6.7775   16.4538 H           1 MOL       0.0343
     28 H7         23.9850    6.0808   15.6242 H           1 MOL       0.0343
     29 H8         22.3320    5.5735   15.1997 H           1 MOL       0.0343
     30 H9         21.3081   10.9544   11.6049 H           1 MOL       0.0394
     31 H10        22.1023   10.0450   10.3861 H           1 MOL       0.0394
     32 H11        23.0301   11.2661   11.2847 H           1 MOL       0.0394
     33 H12        23.8468    5.1713   13.3353 H           1 MOL       0.0271
     34 H13        24.5647    4.8140   11.1724 H           1 MOL       0.1097
     35 H14        24.6292    6.5251    9.6696 H           1 MOL       0.2459
@<TRIPOS>BOND
     1     1     2   1
     2     1     3  ar
     3     1     7  ar
     4     3     4  ar
     5     4     5  ar
     6     5     6  ar
     7     5     8   1
     8     6     7  ar
     9     6    10   1
    10     8     9   1
    11     9    10  ar
    12     9    11  ar
    13    10    15  ar
    14    11    12   1
    15    11    13  ar
    16    13    14  ar
    17    13    17   1
    18    14    15  ar
    19    14    20   1
    20    15    16   1
    21    17    18   2
    22    18    19  am
    23    19    20  am
    24    20    21   2
    25     2    22   1
    26     3    23   1
    27     4    24   1
    28     7    25   1
    29     8    26   1
    30    12    27   1
    31    12    28   1
    32    12    29   1
    33    16    30   1
    34    16    31   1
    35    16    32   1
    36    17    33   1
    37    18    34   1
    38    19    35   1
@<TRIPOS>SUBSTRUCTURE
     1  MOL      1

