@<TRIPOS>MOLECULE
3owj_ligand_027
    35    38
SMALL
GAST_HUCK
****
This file was generated by PARSER (from files_GN.cpp)

@<TRIPOS>ATOM
      1 C1         23.8026    4.9335   21.1402 C.ar        1 MOL       0.0721
      2 O1         25.1197    4.8730   20.8333 O.3         1 MOL      -0.3416
      3 C2         23.0426    3.7753   21.4454 C.ar        1 MOL      -0.0447
      4 C3         21.6633    3.8816   21.6885 C.ar        1 MOL      -0.0486
      5 C4         21.0726    5.1521   21.6437 C.ar        1 MOL       0.0523
      6 C5         21.8070    6.3159   21.3932 C.ar        1 MOL      -0.0192
      7 C6         23.1889    6.2027   21.1305 C.ar        1 MOL      -0.0435
      8 N7         19.7854    5.4811   21.8050 N.pl3       1 MOL      -0.2844
      9 C8         19.6419    6.8114   21.6597 C.ar        1 MOL       0.0555
     10 C9         20.8942    7.3857   21.4206 C.ar        1 MOL      -0.0101
     11 C10        18.4605    7.5750   21.7394 C.ar        1 MOL      -0.0320
     12 C11        17.1642    6.8949   22.0295 C.3         1 MOL      -0.0404
     13 C12        18.5608    8.9786   21.5103 C.ar        1 MOL      -0.0484
     14 C13        19.8380    9.5819   21.2229 C.ar        1 MOL       0.0334
     15 C14        21.0318    8.7912   21.2830 C.ar        1 MOL      -0.0423
     16 C15        22.3992    9.3800   21.3300 C.3         1 MOL      -0.0337
     17 C16        17.4184    9.8078   21.5382 C.2         1 MOL      -0.0576
     18 C17        17.5185   11.1132   21.2411 C.2         1 MOL       0.0437
     19 N18        18.6860   11.6426   20.8854 N.am        1 MOL      -0.2303
     20 C19        19.8162   10.9477   20.8519 C.2         1 MOL       0.2129
     21 O19        20.7611   11.5372   20.3508 O.2         1 MOL      -0.4002
     22 H1         25.2627    3.9519   20.5125 H           1 MOL       0.2441
     23 H2         23.4914    2.8582   21.4800 H           1 MOL       0.0496
     24 H3         21.0970    3.0515   21.8878 H           1 MOL       0.0512
     25 H4         23.7527    7.0174   20.8902 H           1 MOL       0.0468
     26 H5         19.0830    4.8448   21.9881 H           1 MOL       0.2115
     27 H6         17.2771    5.8272   22.1927 H           1 MOL       0.0343
     28 H7         16.4746    7.0331   21.1949 H           1 MOL       0.0343
     29 H8         16.7234    7.3197   22.9323 H           1 MOL       0.0343
     30 H9         23.0010    8.8465   22.0573 H           1 MOL       0.0394
     31 H10        22.4046   10.4110   21.6684 H           1 MOL       0.0394
     32 H11        22.8667    9.3193   20.3455 H           1 MOL       0.0394
     33 H12        16.5217    9.4468   21.7496 H           1 MOL       0.0271
     34 H13        16.7085   11.6890   21.2409 H           1 MOL       0.1097
     35 H14        18.7048   12.5719   20.6069 H           1 MOL       0.2459
@<TRIPOS>BOND
     1     1     2   1
     2     1     3  ar
     3     1     7  ar
     4     3     4  ar
     5     4     5  ar
     6     5     6  ar
     7     5     8   1
     8     6     7  ar
     9     6    10   1
    10     8     9   1
    11     9    10  ar
    12     9    11  ar
    13    10    15  ar
    14    11    12   1
    15    11    13  ar
    16    13    14  ar
    17    13    17   1
    18    14    15  ar
    19    14    20   1
    20    15    16   1
    21    17    18   2
    22    18    19  am
    23    19    20  am
    24    20    21   2
    25     2    22   1
    26     3    23   1
    27     4    24   1
    28     7    25   1
    29     8    26   1
    30    12    27   1
    31    12    28   1
    32    12    29   1
    33    16    30   1
    34    16    31   1
    35    16    32   1
    36    17    33   1
    37    18    34   1
    38    19    35   1
@<TRIPOS>SUBSTRUCTURE
     1  MOL      1

