@<TRIPOS>MOLECULE
3owj_ligand_045
    35    38
SMALL
GAST_HUCK
****
This file was generated by PARSER (from files_GN.cpp)

@<TRIPOS>ATOM
      1 C1         23.8356   14.1394   17.3627 C.ar        1 MOL       0.0721
      2 O1         23.8216   14.5595   18.6505 O.3         1 MOL      -0.3416
      3 C2         24.0491   15.0826   16.3364 C.ar        1 MOL      -0.0447
      4 C3         24.0352   14.6764   14.9891 C.ar        1 MOL      -0.0486
      5 C4         23.8349   13.3161   14.6978 C.ar        1 MOL       0.0523
      6 C5         23.6497   12.3570   15.7010 C.ar        1 MOL      -0.0192
      7 C6         23.6289   12.7767   17.0528 C.ar        1 MOL      -0.0435
      8 N7         23.7832   12.7156   13.5052 N.pl3       1 MOL      -0.2844
      9 C8         23.5647   11.4004   13.6749 C.ar        1 MOL       0.0555
     10 C9         23.4949   11.1206   15.0472 C.ar        1 MOL      -0.0101
     11 C10        23.4310   10.4015   12.6875 C.ar        1 MOL      -0.0320
     12 C11        23.5618   10.7635   11.2459 C.3         1 MOL      -0.0404
     13 C12        23.1452    9.0719   13.1240 C.ar        1 MOL      -0.0484
     14 C13        23.0264    8.7773   14.5292 C.ar        1 MOL       0.0334
     15 C14        23.3235    9.7880   15.5015 C.ar        1 MOL      -0.0423
     16 C15        23.5528    9.4911   16.9435 C.3         1 MOL      -0.0337
     17 C16        22.9670    8.0198   12.2012 C.2         1 MOL      -0.0576
     18 C17        22.6203    6.7922   12.6233 C.2         1 MOL       0.0437
     19 N18        22.4122    6.5519   13.9158 N.am        1 MOL      -0.2303
     20 C19        22.5875    7.4694   14.8581 C.2         1 MOL       0.2129
     21 O19        22.2078    7.1335   15.9691 O.2         1 MOL      -0.4002
     22 H1         22.9265   14.2962   18.9930 H           1 MOL       0.2441
     23 H2         24.2083   16.0673   16.5676 H           1 MOL       0.0496
     24 H3         24.1666   15.3570   14.2372 H           1 MOL       0.0512
     25 H4         23.4537   12.1226   17.8087 H           1 MOL       0.0468
     26 H5         23.8845   13.1663   12.6551 H           1 MOL       0.2115
     27 H6         23.7615   11.8219   11.0799 H           1 MOL       0.0343
     28 H7         22.6374   10.5181   10.7188 H           1 MOL       0.0343
     29 H8         24.3847   10.2032   10.8014 H           1 MOL       0.0343
     30 H9         24.3987   10.0643   17.3200 H           1 MOL       0.0394
     31 H10        23.8244    8.4525   17.1207 H           1 MOL       0.0394
     32 H11        22.6576    9.7345   17.5167 H           1 MOL       0.0394
     33 H12        23.0855    8.1564   11.2248 H           1 MOL       0.0271
     34 H13        22.4778    6.0576   11.9694 H           1 MOL       0.1097
     35 H14        22.0868    5.6772   14.1743 H           1 MOL       0.2459
@<TRIPOS>BOND
     1     1     2   1
     2     1     3  ar
     3     1     7  ar
     4     3     4  ar
     5     4     5  ar
     6     5     6  ar
     7     5     8   1
     8     6     7  ar
     9     6    10   1
    10     8     9   1
    11     9    10  ar
    12     9    11  ar
    13    10    15  ar
    14    11    12   1
    15    11    13  ar
    16    13    14  ar
    17    13    17   1
    18    14    15  ar
    19    14    20   1
    20    15    16   1
    21    17    18   2
    22    18    19  am
    23    19    20  am
    24    20    21   2
    25     2    22   1
    26     3    23   1
    27     4    24   1
    28     7    25   1
    29     8    26   1
    30    12    27   1
    31    12    28   1
    32    12    29   1
    33    16    30   1
    34    16    31   1
    35    16    32   1
    36    17    33   1
    37    18    34   1
    38    19    35   1
@<TRIPOS>SUBSTRUCTURE
     1  MOL      1

