@<TRIPOS>MOLECULE
3owj_ligand_003
    35    38
SMALL
GAST_HUCK
****
This file was generated by PARSER (from files_GN.cpp)

@<TRIPOS>ATOM
      1 C1         23.1292    7.5921   20.6619 C.ar        1 MOL       0.0721
      2 O1         22.9065    8.9022   20.3997 O.3         1 MOL      -0.3416
      3 C2         24.4406    7.0770   20.6033 C.ar        1 MOL      -0.0447
      4 C3         24.6886    5.7205   20.8822 C.ar        1 MOL      -0.0486
      5 C4         23.5951    4.8920   21.1712 C.ar        1 MOL       0.0523
      6 C5         22.2838    5.3714   21.2220 C.ar        1 MOL      -0.0192
      7 C6         22.0455    6.7413   20.9681 C.ar        1 MOL      -0.0435
      8 N7         23.5907    3.5747   21.3842 N.pl3       1 MOL      -0.2844
      9 C8         22.3245    3.1534   21.5297 C.ar        1 MOL       0.0555
     10 C9         21.4649    4.2578   21.4734 C.ar        1 MOL      -0.0101
     11 C10        21.8625    1.8345   21.7042 C.ar        1 MOL      -0.0320
     12 C11        22.8411    0.7115   21.7444 C.3         1 MOL      -0.0404
     13 C12        20.4529    1.6334   21.7747 C.ar        1 MOL      -0.0484
     14 C13        19.5559    2.7537   21.6944 C.ar        1 MOL       0.0334
     15 C14        20.0701    4.0902   21.6460 C.ar        1 MOL      -0.0423
     16 C15        19.2282    5.3017   21.8590 C.3         1 MOL      -0.0337
     17 C16        19.9041    0.3422   21.9115 C.2         1 MOL      -0.0576
     18 C17        18.5743    0.1585   21.9051 C.2         1 MOL       0.0437
     19 N18        17.7549    1.1893   21.7124 N.am        1 MOL      -0.2303
     20 C19        18.1797    2.4436   21.6186 C.2         1 MOL       0.2129
     21 O19        17.3120    3.2482   21.3276 O.2         1 MOL      -0.4002
     22 H1         22.9571    9.3393   21.2774 H           1 MOL       0.2441
     23 H2         25.2169    7.6824   20.3411 H           1 MOL       0.0496
     24 H3         25.6371    5.3368   20.8375 H           1 MOL       0.0512
     25 H4         21.1006    7.1186   20.9450 H           1 MOL       0.0468
     26 H5         24.3777    3.0131   21.4021 H           1 MOL       0.2115
     27 H6         23.8801    1.0349   21.7021 H           1 MOL       0.0343
     28 H7         22.6615    0.0486   20.8979 H           1 MOL       0.0343
     29 H8         22.7223    0.1490   22.6722 H           1 MOL       0.0343
     30 H9         19.7577    6.0335   22.4650 H           1 MOL       0.0394
     31 H10        18.3241    5.0863   22.4243 H           1 MOL       0.0394
     32 H11        18.9542    5.7478   20.8990 H           1 MOL       0.0394
     33 H12        20.4783   -0.4618   22.0003 H           1 MOL       0.0271
     34 H13        18.1890   -0.7537   21.9803 H           1 MOL       0.1097
     35 H14        16.8177    1.0069   21.5473 H           1 MOL       0.2459
@<TRIPOS>BOND
     1     1     2   1
     2     1     3  ar
     3     1     7  ar
     4     3     4  ar
     5     4     5  ar
     6     5     6  ar
     7     5     8   1
     8     6     7  ar
     9     6    10   1
    10     8     9   1
    11     9    10  ar
    12     9    11  ar
    13    10    15  ar
    14    11    12   1
    15    11    13  ar
    16    13    14  ar
    17    13    17   1
    18    14    15  ar
    19    14    20   1
    20    15    16   1
    21    17    18   2
    22    18    19  am
    23    19    20  am
    24    20    21   2
    25     2    22   1
    26     3    23   1
    27     4    24   1
    28     7    25   1
    29     8    26   1
    30    12    27   1
    31    12    28   1
    32    12    29   1
    33    16    30   1
    34    16    31   1
    35    16    32   1
    36    17    33   1
    37    18    34   1
    38    19    35   1
@<TRIPOS>SUBSTRUCTURE
     1  MOL      1

