@<TRIPOS>MOLECULE
3owj_ligand_054
    35    38
SMALL
GAST_HUCK
****
This file was generated by PARSER (from files_GN.cpp)

@<TRIPOS>ATOM
      1 C1         23.7336    6.6422   12.6432 C.ar        1 MOL       0.0721
      2 O1         24.3226    5.8519   11.7171 O.3         1 MOL      -0.3416
      3 C2         23.1253    6.0733   13.7814 C.ar        1 MOL      -0.0447
      4 C3         22.4833    6.8955   14.7273 C.ar        1 MOL      -0.0486
      5 C4         22.4680    8.2835   14.5078 C.ar        1 MOL       0.0523
      6 C5         23.0845    8.8733   13.3985 C.ar        1 MOL      -0.0192
      7 C6         23.7179    8.0403   12.4480 C.ar        1 MOL      -0.0435
      8 N7         21.8778    9.2391   15.2317 N.pl3       1 MOL      -0.2844
      9 C8         22.0490   10.4274   14.6287 C.ar        1 MOL       0.0555
     10 C9         22.8365   10.2565   13.4868 C.ar        1 MOL      -0.0101
     11 C10        21.5366   11.6789   15.0182 C.ar        1 MOL      -0.0320
     12 C11        20.7059   11.7833   16.2527 C.3         1 MOL      -0.0404
     13 C12        21.8011   12.7975   14.1694 C.ar        1 MOL      -0.0484
     14 C13        22.6065   12.6416   12.9845 C.ar        1 MOL       0.0334
     15 C14        23.2084   11.3741   12.6915 C.ar        1 MOL      -0.0423
     16 C15        24.2756   11.1891   11.6649 C.3         1 MOL      -0.0337
     17 C16        21.2961   14.0779   14.4798 C.2         1 MOL      -0.0576
     18 C17        21.5010   15.1111   13.6472 C.2         1 MOL       0.0437
     19 N18        22.1705   14.9397   12.5094 N.am        1 MOL      -0.2303
     20 C19        22.7234   13.7838   12.1607 C.2         1 MOL       0.2129
     21 O19        23.2029   13.7860   11.0385 O.2         1 MOL      -0.4002
     22 H1         23.5861    5.3088   11.3336 H           1 MOL       0.2441
     23 H2         23.1358    5.0611   13.9207 H           1 MOL       0.0496
     24 H3         22.0175    6.4941   15.5456 H           1 MOL       0.0512
     25 H4         24.1293    8.4243   11.6017 H           1 MOL       0.0468
     26 H5         21.3603    9.0779   16.0395 H           1 MOL       0.2115
     27 H6         20.5716   10.8310   16.7676 H           1 MOL       0.0343
     28 H7         19.7115   12.1569   15.9963 H           1 MOL       0.0343
     29 H8         21.1768   12.4717   16.9567 H           1 MOL       0.0343
     30 H9         25.0439   10.5063   12.0338 H           1 MOL       0.0394
     31 H10        24.8129   12.1028   11.4397 H           1 MOL       0.0394
     32 H11        23.8445   10.7877   10.7444 H           1 MOL       0.0394
     33 H12        20.7906   14.2499   15.3134 H           1 MOL       0.0271
     34 H13        21.1551   16.0154   13.8744 H           1 MOL       0.1097
     35 H14        22.2682   15.7103   11.9173 H           1 MOL       0.2459
@<TRIPOS>BOND
     1     1     2   1
     2     1     3  ar
     3     1     7  ar
     4     3     4  ar
     5     4     5  ar
     6     5     6  ar
     7     5     8   1
     8     6     7  ar
     9     6    10   1
    10     8     9   1
    11     9    10  ar
    12     9    11  ar
    13    10    15  ar
    14    11    12   1
    15    11    13  ar
    16    13    14  ar
    17    13    17   1
    18    14    15  ar
    19    14    20   1
    20    15    16   1
    21    17    18   2
    22    18    19  am
    23    19    20  am
    24    20    21   2
    25     2    22   1
    26     3    23   1
    27     4    24   1
    28     7    25   1
    29     8    26   1
    30    12    27   1
    31    12    28   1
    32    12    29   1
    33    16    30   1
    34    16    31   1
    35    16    32   1
    36    17    33   1
    37    18    34   1
    38    19    35   1
@<TRIPOS>SUBSTRUCTURE
     1  MOL      1

