@<TRIPOS>MOLECULE
3owj_ligand_059
    35    38
SMALL
GAST_HUCK
****
This file was generated by PARSER (from files_GN.cpp)

@<TRIPOS>ATOM
      1 C1         22.2809    4.7823   16.3442 C.ar        1 MOL       0.0721
      2 O1         22.0316    5.4343   15.1835 O.3         1 MOL      -0.3416
      3 C2         23.6079    4.4450   16.6835 C.ar        1 MOL      -0.0447
      4 C3         23.8804    3.7521   17.8787 C.ar        1 MOL      -0.0486
      5 C4         22.8082    3.4251   18.7247 C.ar        1 MOL       0.0523
      6 C5         21.4878    3.7763   18.4256 C.ar        1 MOL      -0.0192
      7 C6         21.2163    4.4420   17.2088 C.ar        1 MOL      -0.0435
      8 N7         22.8291    2.7547   19.8801 N.pl3       1 MOL      -0.2844
      9 C8         21.5775    2.6425   20.3559 C.ar        1 MOL       0.0555
     10 C9         20.6992    3.3020   19.4878 C.ar        1 MOL      -0.0101
     11 C10        21.1466    1.9958   21.5315 C.ar        1 MOL      -0.0320
     12 C11        22.1497    1.3534   22.4252 C.3         1 MOL      -0.0404
     13 C12        19.7444    1.9654   21.7931 C.ar        1 MOL      -0.0484
     14 C13        18.8210    2.6061   20.8959 C.ar        1 MOL       0.0334
     15 C14        19.3154    3.3770   19.7934 C.ar        1 MOL      -0.0423
     16 C15        18.4688    4.3181   19.0142 C.3         1 MOL      -0.0337
     17 C16        19.2300    1.3130   22.9319 C.2         1 MOL      -0.0576
     18 C17        17.9052    1.2448   23.1400 C.2         1 MOL       0.0437
     19 N18        17.0520    1.7648   22.2600 N.am        1 MOL      -0.2303
     20 C19        17.4451    2.4141   21.1698 C.2         1 MOL       0.2129
     21 O19        16.5512    2.6608   20.3745 O.2         1 MOL      -0.4002
     22 H1         21.8960    4.7257   14.5191 H           1 MOL       0.2441
     23 H2         24.3772    4.6946   16.0574 H           1 MOL       0.0496
     24 H3         24.8367    3.4913   18.1238 H           1 MOL       0.0512
     25 H4         20.2627    4.6662   16.9291 H           1 MOL       0.0468
     26 H5         23.6268    2.4021   20.2988 H           1 MOL       0.2115
     27 H6         23.1777    1.4660   22.0816 H           1 MOL       0.0343
     28 H7         21.9449    0.2854   22.5013 H           1 MOL       0.0343
     29 H8         22.0868    1.8001   23.4172 H           1 MOL       0.0343
     30 H9         19.0229    5.2297   18.8007 H           1 MOL       0.0394
     31 H10        17.5874    4.6488   19.5605 H           1 MOL       0.0394
     32 H11        18.1617    3.8539   18.0774 H           1 MOL       0.0394
     33 H12        19.8259    0.8907   23.6035 H           1 MOL       0.0271
     34 H13        17.5449    0.7761   23.9373 H           1 MOL       0.1097
     35 H14        16.1023    1.6254   22.4025 H           1 MOL       0.2459
@<TRIPOS>BOND
     1     1     2   1
     2     1     3  ar
     3     1     7  ar
     4     3     4  ar
     5     4     5  ar
     6     5     6  ar
     7     5     8   1
     8     6     7  ar
     9     6    10   1
    10     8     9   1
    11     9    10  ar
    12     9    11  ar
    13    10    15  ar
    14    11    12   1
    15    11    13  ar
    16    13    14  ar
    17    13    17   1
    18    14    15  ar
    19    14    20   1
    20    15    16   1
    21    17    18   2
    22    18    19  am
    23    19    20  am
    24    20    21   2
    25     2    22   1
    26     3    23   1
    27     4    24   1
    28     7    25   1
    29     8    26   1
    30    12    27   1
    31    12    28   1
    32    12    29   1
    33    16    30   1
    34    16    31   1
    35    16    32   1
    36    17    33   1
    37    18    34   1
    38    19    35   1
@<TRIPOS>SUBSTRUCTURE
     1  MOL      1

