@<TRIPOS>MOLECULE
3owj_ligand_058
    35    38
SMALL
GAST_HUCK
****
This file was generated by PARSER (from files_GN.cpp)

@<TRIPOS>ATOM
      1 C1         22.4943    6.3658   19.1071 C.ar        1 MOL       0.0721
      2 O1         22.7827    5.5188   18.0887 O.3         1 MOL      -0.3416
      3 C2         23.2540    7.5445   19.2638 C.ar        1 MOL      -0.0447
      4 C3         22.9813    8.4335   20.3207 C.ar        1 MOL      -0.0486
      5 C4         21.9366    8.1214   21.2055 C.ar        1 MOL       0.0523
      6 C5         21.1474    6.9750   21.0567 C.ar        1 MOL      -0.0192
      7 C6         21.4416    6.0762   20.0042 C.ar        1 MOL      -0.0435
      8 N7         21.5268    8.7972   22.2824 N.pl3       1 MOL      -0.2844
      9 C8         20.5016    8.1421   22.8566 C.ar        1 MOL       0.0555
     10 C9         20.2098    6.9981   22.1021 C.ar        1 MOL      -0.0101
     11 C10        19.7824    8.4952   24.0158 C.ar        1 MOL      -0.0320
     12 C11        20.1313    9.7485   24.7455 C.3         1 MOL      -0.0404
     13 C12        18.7640    7.5983   24.4592 C.ar        1 MOL      -0.0484
     14 C13        18.4684    6.4015   23.7149 C.ar        1 MOL       0.0334
     15 C14        19.1257    6.1578   22.4648 C.ar        1 MOL      -0.0423
     16 C15        18.6638    5.1381   21.4840 C.3         1 MOL      -0.0337
     17 C16        18.0240    7.8620   25.6299 C.2         1 MOL      -0.0576
     18 C17        17.1078    6.9856   26.0717 C.2         1 MOL       0.0437
     19 N18        16.9044    5.8366   25.4307 N.am        1 MOL      -0.2303
     20 C19        17.5382    5.5114   24.3097 C.2         1 MOL       0.2129
     21 O19        17.3463    4.3646   23.9350 O.2         1 MOL      -0.4002
     22 H1         22.0207    5.5919   17.4773 H           1 MOL       0.2441
     23 H2         24.0150    7.7518   18.6133 H           1 MOL       0.0496
     24 H3         23.5302    9.2859   20.4435 H           1 MOL       0.0512
     25 H4         20.9265    5.2039   19.8937 H           1 MOL       0.0468
     26 H5         21.9215    9.6254   22.5988 H           1 MOL       0.2115
     27 H6         20.9356   10.3136   24.2739 H           1 MOL       0.0343
     28 H7         20.4525    9.5066   25.7603 H           1 MOL       0.0343
     29 H8         19.2579   10.4008   24.7904 H           1 MOL       0.0343
     30 H9         18.7172    5.5318   20.4681 H           1 MOL       0.0394
     31 H10        17.6222    4.8685   21.6196 H           1 MOL       0.0394
     32 H11        19.2831    4.2431   21.5596 H           1 MOL       0.0394
     33 H12        18.1607    8.6911   26.1557 H           1 MOL       0.0271
     34 H13        16.5921    7.1731   26.8989 H           1 MOL       0.1097
     35 H14        16.2847    5.1981   25.8197 H           1 MOL       0.2459
@<TRIPOS>BOND
     1     1     2   1
     2     1     3  ar
     3     1     7  ar
     4     3     4  ar
     5     4     5  ar
     6     5     6  ar
     7     5     8   1
     8     6     7  ar
     9     6    10   1
    10     8     9   1
    11     9    10  ar
    12     9    11  ar
    13    10    15  ar
    14    11    12   1
    15    11    13  ar
    16    13    14  ar
    17    13    17   1
    18    14    15  ar
    19    14    20   1
    20    15    16   1
    21    17    18   2
    22    18    19  am
    23    19    20  am
    24    20    21   2
    25     2    22   1
    26     3    23   1
    27     4    24   1
    28     7    25   1
    29     8    26   1
    30    12    27   1
    31    12    28   1
    32    12    29   1
    33    16    30   1
    34    16    31   1
    35    16    32   1
    36    17    33   1
    37    18    34   1
    38    19    35   1
@<TRIPOS>SUBSTRUCTURE
     1  MOL      1

