@<TRIPOS>MOLECULE
3owj_ligand_014
    35    38
SMALL
GAST_HUCK
****
This file was generated by PARSER (from files_GN.cpp)

@<TRIPOS>ATOM
      1 C1         22.3179    2.2366   12.6703 C.ar        1 MOL       0.0721
      2 O1         21.9128    0.9426   12.6942 O.3         1 MOL      -0.3416
      3 C2         22.7506    2.8280   11.4663 C.ar        1 MOL      -0.0447
      4 C3         23.2207    4.1553   11.4498 C.ar        1 MOL      -0.0486
      5 C4         23.2168    4.8825   12.6527 C.ar        1 MOL       0.0523
      6 C5         22.7513    4.3339   13.8503 C.ar        1 MOL      -0.0192
      7 C6         22.3272    2.9867   13.8665 C.ar        1 MOL      -0.0435
      8 N7         23.6310    6.1340   12.8734 N.pl3       1 MOL      -0.2844
      9 C8         23.4505    6.4369   14.1731 C.ar        1 MOL       0.0555
     10 C9         22.8714    5.3400   14.8253 C.ar        1 MOL      -0.0101
     11 C10        23.7547    7.6421   14.8365 C.ar        1 MOL      -0.0320
     12 C11        24.3526    8.7736   14.0710 C.3         1 MOL      -0.0404
     13 C12        23.5145    7.7017   16.2427 C.ar        1 MOL      -0.0484
     14 C13        22.9527    6.5705   16.9362 C.ar        1 MOL       0.0334
     15 C14        22.5252    5.4194   16.1971 C.ar        1 MOL      -0.0423
     16 C15        21.6566    4.3509   16.7713 C.3         1 MOL      -0.0337
     17 C16        23.8351    8.8553   16.9880 C.2         1 MOL      -0.0576
     18 C17        23.6837    8.8715   18.3212 C.2         1 MOL       0.0437
     19 N18        23.2479    7.7929   18.9678 N.am        1 MOL      -0.2303
     20 C19        22.8912    6.6719   18.3475 C.2         1 MOL       0.2129
     21 O19        22.6772    5.7293   19.0939 O.2         1 MOL      -0.4002
     22 H1         21.4215    0.8057   11.8406 H           1 MOL       0.2441
     23 H2         22.7406    2.2852   10.6038 H           1 MOL       0.0496
     24 H3         23.5555    4.5798   10.5806 H           1 MOL       0.0512
     25 H4         22.0365    2.5408   14.7376 H           1 MOL       0.0468
     26 H5         24.0086    6.7197   12.1989 H           1 MOL       0.2115
     27 H6         24.4701    8.5608   13.0077 H           1 MOL       0.0343
     28 H7         25.3406    9.0039   14.4702 H           1 MOL       0.0343
     29 H8         23.7138    9.6560   14.1586 H           1 MOL       0.0343
     30 H9         20.8882    4.0620   16.0546 H           1 MOL       0.0394
     31 H10        21.1038    4.6772   17.6486 H           1 MOL       0.0394
     32 H11        22.2598    3.4805   17.0326 H           1 MOL       0.0394
     33 H12        24.1841    9.6758   16.5524 H           1 MOL       0.0271
     34 H13        23.9300    9.6798   18.8450 H           1 MOL       0.1097
     35 H14        23.2261    7.8147   19.9371 H           1 MOL       0.2459
@<TRIPOS>BOND
     1     1     2   1
     2     1     3  ar
     3     1     7  ar
     4     3     4  ar
     5     4     5  ar
     6     5     6  ar
     7     5     8   1
     8     6     7  ar
     9     6    10   1
    10     8     9   1
    11     9    10  ar
    12     9    11  ar
    13    10    15  ar
    14    11    12   1
    15    11    13  ar
    16    13    14  ar
    17    13    17   1
    18    14    15  ar
    19    14    20   1
    20    15    16   1
    21    17    18   2
    22    18    19  am
    23    19    20  am
    24    20    21   2
    25     2    22   1
    26     3    23   1
    27     4    24   1
    28     7    25   1
    29     8    26   1
    30    12    27   1
    31    12    28   1
    32    12    29   1
    33    16    30   1
    34    16    31   1
    35    16    32   1
    36    17    33   1
    37    18    34   1
    38    19    35   1
@<TRIPOS>SUBSTRUCTURE
     1  MOL      1

