@<TRIPOS>MOLECULE
3owj_ligand_050
    35    38
SMALL
GAST_HUCK
****
This file was generated by PARSER (from files_GN.cpp)

@<TRIPOS>ATOM
      1 C1         18.9021   11.7837   20.6052 C.ar        1 MOL       0.0721
      2 O1         17.6909   11.1951   20.7722 O.3         1 MOL      -0.3416
      3 C2         19.7443   11.9775   21.7209 C.ar        1 MOL      -0.0447
      4 C3         20.9982   12.6017   21.5728 C.ar        1 MOL      -0.0486
      5 C4         21.3928   13.0122   20.2883 C.ar        1 MOL       0.0523
      6 C5         20.5816   12.8145   19.1666 C.ar        1 MOL      -0.0192
      7 C6         19.3132   12.2207   19.3281 C.ar        1 MOL      -0.0435
      8 N7         22.5185   13.6289   19.9085 N.pl3       1 MOL      -0.2844
      9 C8         22.4758   13.8508   18.5802 C.ar        1 MOL       0.0555
     10 C9         21.2811   13.3294   18.0655 C.ar        1 MOL      -0.0101
     11 C10        23.4410   14.4817   17.7676 C.ar        1 MOL      -0.0320
     12 C11        24.7032   14.9865   18.3804 C.3         1 MOL      -0.0404
     13 C12        23.1349   14.6364   16.3820 C.ar        1 MOL      -0.0484
     14 C13        21.8943   14.1420   15.8439 C.ar        1 MOL       0.0334
     15 C14        21.0088   13.3810   16.6745 C.ar        1 MOL      -0.0423
     16 C15        19.8807   12.5692   16.1293 C.3         1 MOL      -0.0337
     17 C16        24.0348   15.2791   15.5111 C.2         1 MOL      -0.0576
     18 C17        23.7093   15.4867   14.2267 C.2         1 MOL       0.0437
     19 N18        22.5139   15.1222   13.7605 N.am        1 MOL      -0.2303
     20 C19        21.6153   14.4844   14.5004 C.2         1 MOL       0.2129
     21 O19        20.5188   14.3712   13.9788 O.2         1 MOL      -0.4002
     22 H1         17.8473   10.4307   21.3777 H           1 MOL       0.2441
     23 H2         19.4389   11.6657   22.6455 H           1 MOL       0.0496
     24 H3         21.6077   12.7460   22.3797 H           1 MOL       0.0512
     25 H4         18.6788   12.1183   18.5406 H           1 MOL       0.0468
     26 H5         23.2466   13.8791   20.5027 H           1 MOL       0.2115
     27 H6         24.7675   14.8061   19.4515 H           1 MOL       0.0343
     28 H7         24.7794   16.0638   18.2232 H           1 MOL       0.0343
     29 H8         25.5555   14.4929   17.9111 H           1 MOL       0.0343
     30 H9         19.8212   11.6041   16.6336 H           1 MOL       0.0394
     31 H10        20.0108   12.3149   15.0782 H           1 MOL       0.0394
     32 H11        18.9379   13.1065   16.2512 H           1 MOL       0.0394
     33 H12        24.9195   15.5939   15.8181 H           1 MOL       0.0271
     34 H13        24.3423   15.9482   13.6181 H           1 MOL       0.1097
     35 H14        22.2768   15.3713   12.8528 H           1 MOL       0.2459
@<TRIPOS>BOND
     1     1     2   1
     2     1     3  ar
     3     1     7  ar
     4     3     4  ar
     5     4     5  ar
     6     5     6  ar
     7     5     8   1
     8     6     7  ar
     9     6    10   1
    10     8     9   1
    11     9    10  ar
    12     9    11  ar
    13    10    15  ar
    14    11    12   1
    15    11    13  ar
    16    13    14  ar
    17    13    17   1
    18    14    15  ar
    19    14    20   1
    20    15    16   1
    21    17    18   2
    22    18    19  am
    23    19    20  am
    24    20    21   2
    25     2    22   1
    26     3    23   1
    27     4    24   1
    28     7    25   1
    29     8    26   1
    30    12    27   1
    31    12    28   1
    32    12    29   1
    33    16    30   1
    34    16    31   1
    35    16    32   1
    36    17    33   1
    37    18    34   1
    38    19    35   1
@<TRIPOS>SUBSTRUCTURE
     1  MOL      1

