@<TRIPOS>MOLECULE
3ozt_ligand_038
    50    52
SMALL
GAST_HUCK
****
This file was generated by PARSER (from files_GN.cpp)

@<TRIPOS>ATOM
      1 C1         35.6102   -7.2377   -6.1283 C.3         1 OZZ       0.1189
      2 C2         36.3986   -8.0231   -5.0680 C.3         1 OZZ       0.1403
      3 C3         37.7075   -8.4333   -5.7996 C.3         1 OZZ       0.2027
      4 O4         37.8653   -7.4987   -6.8897 O.3         1 OZZ      -0.3296
      5 C5         36.7064   -6.6796   -7.0608 C.3         1 OZZ       0.1082
      6 C6         37.0605   -5.2725   -6.8698 C.2         1 OZZ      -0.0658
      7 N7         38.8694   -8.5716   -4.9715 N.pl3       1 OZZ      -0.2105
      8 O8         34.7122   -8.0773   -6.8582 O.3         1 OZZ      -0.3846
      9 O9         35.6689   -9.1459   -4.5618 O.3         1 OZZ      -0.3834
     10 C10        37.4949   -4.7460   -5.7106 C.2         1 OZZ      -0.0744
     11 C11        37.7661   -3.3213   -5.5456 C.3         1 OZZ       0.0473
     12 N12        38.1466   -2.9859   -4.2066 N.am        1 OZZ      -0.2765
     13 C13        38.0522   -1.7799   -3.6594 C.2         1 OZZ       0.2411
     14 C14        38.4958   -1.5625   -2.3626 C.ar        1 OZZ       0.2482
     15 C15        37.8003   -2.0718   -1.2382 C.ar        1 OZZ       0.3921
     16 C16        38.2645   -1.7906    0.0637 C.ar        1 OZZ       0.3797
     17 C17        39.4408   -1.0395    0.2456 C.ar        1 OZZ       0.1691
     18 C18        40.1592   -0.5178   -0.8547 C.ar        1 OZZ       0.2168
     19 C19        39.6533   -0.7795   -2.1539 C.ar        1 OZZ       0.1162
     20 N20        41.3014    0.2049   -0.6771 N.2         1 OZZ      -0.1404
     21 O21        36.6646   -2.8050   -1.3957 O.3         1 OZZ      -0.1763
     22 O22        37.5997   -2.2245    1.1651 O.3         1 OZZ      -0.1825
     23 O23        37.5607   -0.8416   -4.2745 O.2         1 OZZ      -0.3823
     24 O24        41.7963    0.4478    0.5079 O.2         1 OZZ      -0.4541
     25 O25        41.9421    0.6526   -1.5918 O.2         1 OZZ      -0.4541
     26 C26        40.0357   -7.9805   -5.3001 C.2         1 OZZ       0.0592
     27 C27        41.1692   -8.2216   -4.6065 C.2         1 OZZ      -0.0116
     28 C28        41.1229   -9.0681   -3.5360 C.2         1 OZZ       0.0683
     29 C29        38.8404   -9.4128   -3.9251 C.2         1 OZZ       0.0592
     30 C30        39.9444   -9.6584   -3.1827 C.2         1 OZZ      -0.0116
     31 O31        42.1469   -9.3184   -2.9110 O.2         1 OZZ      -0.4519
     32 H1         35.0195   -6.4360   -5.6677 H           1 OZZ       0.0667
     33 H2         36.6235   -7.3682   -4.2258 H           1 OZZ       0.0678
     34 H3         37.5299   -9.4003   -6.2826 H           1 OZZ       0.0999
     35 H4         36.3715   -6.7990   -8.0944 H           1 OZZ       0.0749
     36 H5         36.9665   -4.6631   -7.6532 H           1 OZZ       0.0477
     37 H6         35.1659   -8.9433   -6.9785 H           1 OZZ       0.2102
     38 H7         35.4771   -9.7193   -5.3367 H           1 OZZ       0.2101
     39 H8         37.6058   -5.3406   -4.9279 H           1 OZZ       0.0470
     40 H9         36.8663   -2.7623   -5.8163 H           1 OZZ       0.0643
     41 H10        38.5734   -3.0278   -6.2238 H           1 OZZ       0.0643
     42 H11        38.5424   -3.6900   -3.6693 H           1 OZZ       0.1867
     43 H12        39.7685   -0.8693    1.2020 H           1 OZZ       0.1086
     44 H13        40.1510   -0.4107   -2.9673 H           1 OZZ       0.1563
     45 H14        35.9910   -2.3899   -0.8182 H           1 OZZ       0.3540
     46 H15        36.6437   -2.1529    0.9496 H           1 OZZ       0.3497
     47 H16        40.1122   -7.3720   -6.0801 H           1 OZZ       0.1185
     48 H17        42.0241   -7.7966   -4.8842 H           1 OZZ       0.0387
     49 H18        38.0033   -9.8750   -3.6587 H           1 OZZ       0.1185
     50 H19        39.8924  -10.2597   -2.3946 H           1 OZZ       0.0387
@<TRIPOS>BOND
     1     1     2   1
     2     1     5   1
     3     1     8   1
     4     2     3   1
     5     2     9   1
     6     3     4   1
     7     3     7   1
     8     4     5   1
     9     5     6   1
    10     6    10   2
    11     7    26   1
    12     7    29   1
    13    10    11   1
    14    11    12   1
    15    12    13  am
    16    13    14   1
    17    13    23   2
    18    14    15  ar
    19    14    19  ar
    20    15    16  ar
    21    15    21   1
    22    16    17  ar
    23    16    22   1
    24    17    18  ar
    25    18    19  ar
    26    18    20   1
    27    20    24   2
    28    20    25   2
    29    26    27   2
    30    27    28   1
    31    28    30   1
    32    28    31   2
    33    29    30   2
    34     1    32   1
    35     2    33   1
    36     3    34   1
    37     5    35   1
    38     6    36   1
    39     8    37   1
    40     9    38   1
    41    10    39   1
    42    11    40   1
    43    11    41   1
    44    12    42   1
    45    17    43   1
    46    19    44   1
    47    21    45   1
    48    22    46   1
    49    26    47   1
    50    27    48   1
    51    29    49   1
    52    30    50   1
@<TRIPOS>SUBSTRUCTURE
     1  OZZ      1

