@<TRIPOS>MOLECULE
3ozt_ligand_023
    50    52
SMALL
GAST_HUCK
****
This file was generated by PARSER (from files_GN.cpp)

@<TRIPOS>ATOM
      1 C1         37.6258   -1.3021  -13.6942 C.3         1 OZZ       0.1189
      2 C2         37.2995    0.1919  -13.8091 C.3         1 OZZ       0.1403
      3 C3         35.7483    0.2032  -13.6821 C.3         1 OZZ       0.2027
      4 O4         35.4451   -0.8971  -12.8074 O.3         1 OZZ      -0.3296
      5 C5         36.5562   -1.7962  -12.6898 C.3         1 OZZ       0.1082
      6 C6         37.0233   -1.8669  -11.3071 C.2         1 OZZ      -0.0658
      7 N7         35.0205    1.3522  -13.2418 N.pl3       1 OZZ      -0.2105
      8 O8         37.5212   -1.9775  -14.9516 O.3         1 OZZ      -0.3846
      9 O9         37.7627    0.7877  -15.0229 O.3         1 OZZ      -0.3834
     10 C10        36.2116   -1.7736  -10.2369 C.2         1 OZZ      -0.0744
     11 C11        36.6137   -2.1081   -8.8796 C.3         1 OZZ       0.0473
     12 N12        36.1923   -3.3778   -8.3430 N.am        1 OZZ      -0.2765
     13 C13        35.6749   -4.4520   -8.9500 C.2         1 OZZ       0.2411
     14 C14        35.4293   -5.6683   -8.2791 C.ar        1 OZZ       0.2482
     15 C15        34.5721   -6.6685   -8.8177 C.ar        1 OZZ       0.3921
     16 C16        34.3092   -7.8584   -8.1062 C.ar        1 OZZ       0.3797
     17 C17        34.9487   -8.0996   -6.8809 C.ar        1 OZZ       0.1691
     18 C18        35.8403   -7.1593   -6.3169 C.ar        1 OZZ       0.2168
     19 C19        36.0580   -5.9524   -7.0375 C.ar        1 OZZ       0.1162
     20 N20        36.4571   -7.4063   -5.1262 N.2         1 OZZ      -0.1404
     21 O21        33.9634   -6.5312  -10.0260 O.3         1 OZZ      -0.1763
     22 O22        33.4080   -8.7652   -8.5670 O.3         1 OZZ      -0.1825
     23 O23        35.4396   -4.3948  -10.1495 O.2         1 OZZ      -0.3823
     24 O24        36.2651   -8.5083   -4.4508 O.2         1 OZZ      -0.4541
     25 O25        37.2196   -6.6287   -4.6133 O.2         1 OZZ      -0.4541
     26 C26        33.6840    1.3350  -13.3957 C.2         1 OZZ       0.0592
     27 C27        32.9147    2.3840  -13.0429 C.2         1 OZZ      -0.0116
     28 C28        33.5200    3.4959  -12.5343 C.2         1 OZZ       0.0683
     29 C29        35.5994    2.4359  -12.6991 C.2         1 OZZ       0.0592
     30 C30        34.8665    3.5115  -12.3330 C.2         1 OZZ      -0.0116
     31 O31        32.8867    4.5408  -12.4399 O.2         1 OZZ      -0.4519
     32 H1         38.6513   -1.4401  -13.3317 H           1 OZZ       0.0667
     33 H2         37.7697    0.6929  -12.9616 H           1 OZZ       0.0678
     34 H3         35.3646   -0.0618  -14.6733 H           1 OZZ       0.0999
     35 H4         36.2188   -2.7961  -12.9745 H           1 OZZ       0.0749
     36 H5         37.9591   -2.1588  -11.1542 H           1 OZZ       0.0477
     37 H6         36.7634   -1.5713  -15.4235 H           1 OZZ       0.2102
     38 H7         37.2763    0.3378  -15.7441 H           1 OZZ       0.2101
     39 H8         35.2479   -1.5660  -10.3762 H           1 OZZ       0.0470
     40 H9         36.2128   -1.3351   -8.2207 H           1 OZZ       0.0643
     41 H10        37.7008   -2.0734   -8.7731 H           1 OZZ       0.0643
     42 H11        36.3600   -3.4747   -7.3930 H           1 OZZ       0.1867
     43 H12        34.7396   -8.9701   -6.3911 H           1 OZZ       0.1086
     44 H13        36.7132   -5.2756   -6.6394 H           1 OZZ       0.1563
     45 H14        34.1472   -7.3797  -10.4944 H           1 OZZ       0.3540
     46 H15        32.6815   -8.2438   -8.9742 H           1 OZZ       0.3497
     47 H16        33.2245    0.5433  -13.7897 H           1 OZZ       0.1185
     48 H17        31.9308    2.3506  -13.1831 H           1 OZZ       0.0387
     49 H18        36.5801    2.4889  -12.5771 H           1 OZZ       0.1185
     50 H19        35.3112    4.3157  -11.9524 H           1 OZZ       0.0387
@<TRIPOS>BOND
     1     1     2   1
     2     1     5   1
     3     1     8   1
     4     2     3   1
     5     2     9   1
     6     3     4   1
     7     3     7   1
     8     4     5   1
     9     5     6   1
    10     6    10   2
    11     7    26   1
    12     7    29   1
    13    10    11   1
    14    11    12   1
    15    12    13  am
    16    13    14   1
    17    13    23   2
    18    14    15  ar
    19    14    19  ar
    20    15    16  ar
    21    15    21   1
    22    16    17  ar
    23    16    22   1
    24    17    18  ar
    25    18    19  ar
    26    18    20   1
    27    20    24   2
    28    20    25   2
    29    26    27   2
    30    27    28   1
    31    28    30   1
    32    28    31   2
    33    29    30   2
    34     1    32   1
    35     2    33   1
    36     3    34   1
    37     5    35   1
    38     6    36   1
    39     8    37   1
    40     9    38   1
    41    10    39   1
    42    11    40   1
    43    11    41   1
    44    12    42   1
    45    17    43   1
    46    19    44   1
    47    21    45   1
    48    22    46   1
    49    26    47   1
    50    27    48   1
    51    29    49   1
    52    30    50   1
@<TRIPOS>SUBSTRUCTURE
     1  OZZ      1

