@<TRIPOS>MOLECULE
3ozt_ligand_067
    50    52
SMALL
GAST_HUCK
****
This file was generated by PARSER (from files_GN.cpp)

@<TRIPOS>ATOM
      1 C1         36.7336   -8.6122   -6.1524 C.3         1 OZZ       0.1189
      2 C2         35.9062   -7.8510   -7.2067 C.3         1 OZZ       0.1403
      3 C3         35.9980   -6.3652   -6.7818 C.3         1 OZZ       0.2027
      4 O4         37.3371   -6.3110   -6.2660 O.3         1 OZZ      -0.3296
      5 C5         37.6145   -7.5018   -5.5177 C.3         1 OZZ       0.1082
      6 C6         39.0524   -7.7315   -5.5420 C.2         1 OZZ      -0.0658
      7 N7         35.7972   -5.3240   -7.7404 N.pl3       1 OZZ      -0.2105
      8 O8         35.8939   -9.2362   -5.1765 O.3         1 OZZ      -0.3846
      9 O9         34.5622   -8.3176   -7.2998 O.3         1 OZZ      -0.3834
     10 C10        39.6949   -8.5495   -4.6935 C.2         1 OZZ      -0.0744
     11 C11        41.1434   -8.6690   -4.7113 C.3         1 OZZ       0.0473
     12 N12        41.6141   -9.7169   -3.8567 N.am        1 OZZ      -0.2765
     13 C13        42.2340  -10.8354   -4.2161 C.2         1 OZZ       0.2411
     14 C14        42.6377  -11.7555   -3.2469 C.ar        1 OZZ       0.2482
     15 C15        42.5321  -13.1552   -3.4548 C.ar        1 OZZ       0.3921
     16 C16        42.9884  -14.0559   -2.4714 C.ar        1 OZZ       0.3797
     17 C17        43.5361  -13.5767   -1.2716 C.ar        1 OZZ       0.1691
     18 C18        43.6554  -12.1889   -1.0237 C.ar        1 OZZ       0.2168
     19 C19        43.1927  -11.3007   -2.0245 C.ar        1 OZZ       0.1162
     20 N20        44.2107  -11.7299    0.1354 N.2         1 OZZ      -0.1404
     21 O21        41.9571  -13.6515   -4.5851 O.3         1 OZZ      -0.1763
     22 O22        42.9137  -15.3974   -2.6512 O.3         1 OZZ      -0.1825
     23 O23        42.4155  -11.0951   -5.4007 O.2         1 OZZ      -0.3823
     24 O24        44.6481  -12.5342    1.0682 O.2         1 OZZ      -0.4541
     25 O25        44.3495  -10.5569    0.3693 O.2         1 OZZ      -0.4541
     26 C26        35.0982   -5.5025   -8.8751 C.2         1 OZZ       0.0592
     27 C27        34.9402   -4.5089   -9.7737 C.2         1 OZZ      -0.0116
     28 C28        35.4676   -3.2783   -9.5020 C.2         1 OZZ       0.0683
     29 C29        36.2200   -4.0784   -7.4413 C.2         1 OZZ       0.0592
     30 C30        36.0826   -3.0539   -8.3051 C.2         1 OZZ      -0.0116
     31 O31        35.3408   -2.3668  -10.3055 O.2         1 OZZ      -0.4519
     32 H1         37.3238   -9.3946   -6.6425 H           1 OZZ       0.0667
     33 H2         36.3760   -7.9756   -8.1838 H           1 OZZ       0.0678
     34 H3         35.3022   -6.1914   -5.9534 H           1 OZZ       0.0999
     35 H4         37.3056   -7.3069   -4.4838 H           1 OZZ       0.0749
     36 H5         39.5946   -7.2179   -6.2016 H           1 OZZ       0.0477
     37 H6         36.4496   -9.9342   -4.7705 H           1 OZZ       0.2102
     38 H7         34.6246   -9.2972   -7.3021 H           1 OZZ       0.2101
     39 H8         39.1670   -9.0730   -4.0327 H           1 OZZ       0.0470
     40 H9         41.5788   -7.7361   -4.3445 H           1 OZZ       0.0643
     41 H10        41.4758   -8.8158   -5.7415 H           1 OZZ       0.0643
     42 H11        41.4388   -9.5964   -2.9089 H           1 OZZ       0.1867
     43 H12        43.8491  -14.2570   -0.5744 H           1 OZZ       0.1086
     44 H13        43.2914  -10.2955   -1.8707 H           1 OZZ       0.1563
     45 H14        41.2167  -14.2139   -4.2734 H           1 OZZ       0.3540
     46 H15        43.6183  -15.5995   -3.3028 H           1 OZZ       0.3497
     47 H16        34.6567   -6.3670   -9.0764 H           1 OZZ       0.1185
     48 H17        34.4173   -4.6666  -10.6069 H           1 OZZ       0.0387
     49 H18        36.6525   -3.8813   -6.5653 H           1 OZZ       0.1185
     50 H19        36.4096   -2.1435   -8.0665 H           1 OZZ       0.0387
@<TRIPOS>BOND
     1     1     2   1
     2     1     5   1
     3     1     8   1
     4     2     3   1
     5     2     9   1
     6     3     4   1
     7     3     7   1
     8     4     5   1
     9     5     6   1
    10     6    10   2
    11     7    26   1
    12     7    29   1
    13    10    11   1
    14    11    12   1
    15    12    13  am
    16    13    14   1
    17    13    23   2
    18    14    15  ar
    19    14    19  ar
    20    15    16  ar
    21    15    21   1
    22    16    17  ar
    23    16    22   1
    24    17    18  ar
    25    18    19  ar
    26    18    20   1
    27    20    24   2
    28    20    25   2
    29    26    27   2
    30    27    28   1
    31    28    30   1
    32    28    31   2
    33    29    30   2
    34     1    32   1
    35     2    33   1
    36     3    34   1
    37     5    35   1
    38     6    36   1
    39     8    37   1
    40     9    38   1
    41    10    39   1
    42    11    40   1
    43    11    41   1
    44    12    42   1
    45    17    43   1
    46    19    44   1
    47    21    45   1
    48    22    46   1
    49    26    47   1
    50    27    48   1
    51    29    49   1
    52    30    50   1
@<TRIPOS>SUBSTRUCTURE
     1  OZZ      1

