@<TRIPOS>MOLECULE
3ozt_ligand_049
    50    52
SMALL
GAST_HUCK
****
This file was generated by PARSER (from files_GN.cpp)

@<TRIPOS>ATOM
      1 C1         38.4833   -1.8141   -7.6999 C.3         1 OZZ       0.1189
      2 C2         38.9428   -3.0997   -6.9909 C.3         1 OZZ       0.1403
      3 C3         37.7020   -3.4986   -6.1540 C.3         1 OZZ       0.2027
      4 O4         36.5539   -2.8980   -6.7949 O.3         1 OZZ      -0.3296
      5 C5         36.9681   -2.0588   -7.8866 C.3         1 OZZ       0.1082
      6 C6         36.6647   -2.7311   -9.1479 C.2         1 OZZ      -0.0658
      7 N7         37.6012   -4.9070   -5.9424 N.pl3       1 OZZ      -0.2105
      8 O8         38.6916   -0.6555   -6.8886 O.3         1 OZZ      -0.3846
      9 O9         40.1280   -2.9310   -6.2107 O.3         1 OZZ      -0.3834
     10 C10        36.1477   -2.1359  -10.2392 C.2         1 OZZ      -0.0744
     11 C11        35.9402   -2.8382  -11.4981 C.3         1 OZZ       0.0473
     12 N12        35.3445   -4.1196  -11.2699 N.am        1 OZZ      -0.2765
     13 C13        34.1900   -4.5952  -11.7274 C.2         1 OZZ       0.2411
     14 C14        33.7291   -5.8539  -11.3227 C.ar        1 OZZ       0.2482
     15 C15        33.9930   -6.3651  -10.0233 C.ar        1 OZZ       0.3921
     16 C16        33.6168   -7.6748   -9.6722 C.ar        1 OZZ       0.3797
     17 C17        32.9042   -8.4678  -10.5854 C.ar        1 OZZ       0.1691
     18 C18        32.5379   -7.9738  -11.8573 C.ar        1 OZZ       0.2168
     19 C19        32.9751   -6.6694  -12.2091 C.ar        1 OZZ       0.1162
     20 N20        31.7745   -8.7350  -12.6960 N.2         1 OZZ      -0.1404
     21 O21        34.5385   -5.6031   -9.0425 O.3         1 OZZ      -0.1763
     22 O22        33.9089   -8.1611   -8.4352 O.3         1 OZZ      -0.1825
     23 O23        33.5527   -3.9490  -12.5508 O.2         1 OZZ      -0.3823
     24 O24        31.3813   -9.9448  -12.3850 O.2         1 OZZ      -0.4541
     25 O25        31.3867   -8.3386  -13.7634 O.2         1 OZZ      -0.4541
     26 C26        36.8682   -5.6779   -6.7569 C.2         1 OZZ       0.0592
     27 C27        36.8391   -7.0207   -6.6211 C.2         1 OZZ      -0.0116
     28 C28        37.5655   -7.6025   -5.6206 C.2         1 OZZ       0.0683
     29 C29        38.3310   -5.4861   -4.9716 C.2         1 OZZ       0.0592
     30 C30        38.3245   -6.8244   -4.7920 C.2         1 OZZ      -0.0116
     31 O31        37.5408   -8.8181   -5.4713 O.2         1 OZZ      -0.4519
     32 H1         39.0079   -1.6726   -8.6528 H           1 OZZ       0.0667
     33 H2         39.1507   -3.8655   -7.7437 H           1 OZZ       0.0678
     34 H3         37.7593   -2.9837   -5.1852 H           1 OZZ       0.0999
     35 H4         36.4280   -1.1105   -7.8216 H           1 OZZ       0.0749
     36 H5         36.8826   -3.6995   -9.2036 H           1 OZZ       0.0477
     37 H6         39.6536   -0.4685   -6.9455 H           1 OZZ       0.2102
     38 H7         39.9139   -2.2449   -5.5425 H           1 OZZ       0.2101
     39 H8         35.9290   -1.1614  -10.2030 H           1 OZZ       0.0470
     40 H9         36.9067   -2.9915  -11.9771 H           1 OZZ       0.0643
     41 H10        35.3379   -2.2181  -12.1650 H           1 OZZ       0.0643
     42 H11        35.8633   -4.7188  -10.7092 H           1 OZZ       0.1867
     43 H12        32.6302   -9.4052  -10.2905 H           1 OZZ       0.1086
     44 H13        32.7510   -6.3152  -13.1441 H           1 OZZ       0.1563
     45 H14        34.0374   -4.7675   -9.0753 H           1 OZZ       0.3540
     46 H15        34.3695   -9.0199   -8.5946 H           1 OZZ       0.3497
     47 H16        36.3366   -5.2774   -7.4891 H           1 OZZ       0.1185
     48 H17        36.3014   -7.5759   -7.2460 H           1 OZZ       0.0387
     49 H18        38.8958   -4.9385   -4.3577 H           1 OZZ       0.1185
     50 H19        38.8717   -7.2374   -4.0686 H           1 OZZ       0.0387
@<TRIPOS>BOND
     1     1     2   1
     2     1     5   1
     3     1     8   1
     4     2     3   1
     5     2     9   1
     6     3     4   1
     7     3     7   1
     8     4     5   1
     9     5     6   1
    10     6    10   2
    11     7    26   1
    12     7    29   1
    13    10    11   1
    14    11    12   1
    15    12    13  am
    16    13    14   1
    17    13    23   2
    18    14    15  ar
    19    14    19  ar
    20    15    16  ar
    21    15    21   1
    22    16    17  ar
    23    16    22   1
    24    17    18  ar
    25    18    19  ar
    26    18    20   1
    27    20    24   2
    28    20    25   2
    29    26    27   2
    30    27    28   1
    31    28    30   1
    32    28    31   2
    33    29    30   2
    34     1    32   1
    35     2    33   1
    36     3    34   1
    37     5    35   1
    38     6    36   1
    39     8    37   1
    40     9    38   1
    41    10    39   1
    42    11    40   1
    43    11    41   1
    44    12    42   1
    45    17    43   1
    46    19    44   1
    47    21    45   1
    48    22    46   1
    49    26    47   1
    50    27    48   1
    51    29    49   1
    52    30    50   1
@<TRIPOS>SUBSTRUCTURE
     1  OZZ      1

