@<TRIPOS>MOLECULE
3ozt_ligand_016
    50    52
SMALL
GAST_HUCK
****
This file was generated by PARSER (from files_GN.cpp)

@<TRIPOS>ATOM
      1 C1         34.6159   -2.0075  -13.3704 C.3         1 OZZ       0.1189
      2 C2         36.1520   -2.0364  -13.2972 C.3         1 OZZ       0.1403
      3 C3         36.4698   -1.5087  -11.8678 C.3         1 OZZ       0.2027
      4 O4         35.2805   -1.7957  -11.0845 O.3         1 OZZ      -0.3296
      5 C5         34.2196   -2.3061  -11.9107 C.3         1 OZZ       0.1082
      6 C6         33.9267   -3.7127  -11.6465 C.2         1 OZZ      -0.0658
      7 N7         37.6867   -1.9634  -11.2621 N.pl3       1 OZZ      -0.2105
      8 O8         34.1120   -0.7301  -13.7826 O.3         1 OZZ      -0.3846
      9 O9         36.7526   -1.2355  -14.3118 O.3         1 OZZ      -0.3834
     10 C10        34.7929   -4.6036  -11.1316 C.2         1 OZZ      -0.0744
     11 C11        34.3911   -5.9208  -10.6582 C.3         1 OZZ       0.0473
     12 N12        35.1067   -6.4117   -9.5167 N.am        1 OZZ      -0.2765
     13 C13        35.5230   -5.7430   -8.4456 C.2         1 OZZ       0.2411
     14 C14        36.1320   -6.4051   -7.3791 C.ar        1 OZZ       0.2482
     15 C15        35.6299   -7.6326   -6.8848 C.ar        1 OZZ       0.3921
     16 C16        36.1972   -8.2355   -5.7486 C.ar        1 OZZ       0.3797
     17 C17        37.3086   -7.6458   -5.1188 C.ar        1 OZZ       0.1691
     18 C18        37.8722   -6.4401   -5.6033 C.ar        1 OZZ       0.2168
     19 C19        37.2540   -5.8316   -6.7258 C.ar        1 OZZ       0.1162
     20 N20        38.9652   -5.8922   -4.9995 N.2         1 OZZ      -0.1404
     21 O21        34.5529   -8.2346   -7.4466 O.3         1 OZZ      -0.1763
     22 O22        35.6434   -9.3613   -5.2326 O.3         1 OZZ      -0.1825
     23 O23        35.4268   -4.5208   -8.3967 O.2         1 OZZ      -0.3823
     24 O24        39.5486   -6.4498   -3.9718 O.2         1 OZZ      -0.4541
     25 O25        39.4808   -4.8721   -5.3772 O.2         1 OZZ      -0.4541
     26 C26        37.7825   -2.1177   -9.9259 C.2         1 OZZ       0.0592
     27 C27        38.9425   -2.4843   -9.3387 C.2         1 OZZ      -0.0116
     28 C28        40.0412   -2.6937  -10.1195 C.2         1 OZZ       0.0683
     29 C29        38.7984   -2.0803  -12.0053 C.2         1 OZZ       0.0592
     30 C30        39.9744   -2.4631  -11.4628 C.2         1 OZZ      -0.0116
     31 O31        41.1005   -3.0342   -9.6106 O.2         1 OZZ      -0.4519
     32 H1         34.2349   -2.7634  -14.0695 H           1 OZZ       0.0667
     33 H2         36.4959   -3.0685  -13.4084 H           1 OZZ       0.0678
     34 H3         36.5254   -0.4175  -11.9180 H           1 OZZ       0.0999
     35 H4         33.3303   -1.7374  -11.6514 H           1 OZZ       0.0749
     36 H5         32.9861   -4.0025  -11.8051 H           1 OZZ       0.0477
     37 H6         34.6709   -0.0658  -13.3304 H           1 OZZ       0.2102
     38 H7         36.1328   -1.2397  -15.0710 H           1 OZZ       0.2101
     39 H8         35.7546   -4.3625  -11.0590 H           1 OZZ       0.0470
     40 H9         34.5544   -6.6264  -11.4771 H           1 OZZ       0.0643
     41 H10        33.3235   -5.9448  -10.4173 H           1 OZZ       0.0643
     42 H11        35.2688   -7.3658   -9.5234 H           1 OZZ       0.1867
     43 H12        37.6941   -8.1027   -4.2941 H           1 OZZ       0.1086
     44 H13        37.6425   -4.9549   -7.0888 H           1 OZZ       0.1563
     45 H14        34.8915   -8.6118   -8.2851 H           1 OZZ       0.3540
     46 H15        36.2822  -10.0829   -5.4395 H           1 OZZ       0.3497
     47 H16        37.0135   -1.9263   -9.3244 H           1 OZZ       0.1185
     48 H17        38.9978   -2.5631   -8.3495 H           1 OZZ       0.0387
     49 H18        38.7915   -1.8806  -12.9794 H           1 OZZ       0.1185
     50 H19        40.7850   -2.5510  -12.0356 H           1 OZZ       0.0387
@<TRIPOS>BOND
     1     1     2   1
     2     1     5   1
     3     1     8   1
     4     2     3   1
     5     2     9   1
     6     3     4   1
     7     3     7   1
     8     4     5   1
     9     5     6   1
    10     6    10   2
    11     7    26   1
    12     7    29   1
    13    10    11   1
    14    11    12   1
    15    12    13  am
    16    13    14   1
    17    13    23   2
    18    14    15  ar
    19    14    19  ar
    20    15    16  ar
    21    15    21   1
    22    16    17  ar
    23    16    22   1
    24    17    18  ar
    25    18    19  ar
    26    18    20   1
    27    20    24   2
    28    20    25   2
    29    26    27   2
    30    27    28   1
    31    28    30   1
    32    28    31   2
    33    29    30   2
    34     1    32   1
    35     2    33   1
    36     3    34   1
    37     5    35   1
    38     6    36   1
    39     8    37   1
    40     9    38   1
    41    10    39   1
    42    11    40   1
    43    11    41   1
    44    12    42   1
    45    17    43   1
    46    19    44   1
    47    21    45   1
    48    22    46   1
    49    26    47   1
    50    27    48   1
    51    29    49   1
    52    30    50   1
@<TRIPOS>SUBSTRUCTURE
     1  OZZ      1

