@<TRIPOS>MOLECULE
3ozt_ligand_035
    50    52
SMALL
GAST_HUCK
****
This file was generated by PARSER (from files_GN.cpp)

@<TRIPOS>ATOM
      1 C1         40.0466   -3.4843  -12.5252 C.3         1 OZZ       0.1189
      2 C2         39.5344   -2.6896  -13.7393 C.3         1 OZZ       0.1403
      3 C3         38.9720   -1.3845  -13.1038 C.3         1 OZZ       0.2027
      4 O4         39.1283   -1.5176  -11.6806 O.3         1 OZZ      -0.3296
      5 C5         39.1875   -2.9181  -11.3779 C.3         1 OZZ       0.1082
      6 C6         39.6957   -3.1456  -10.0326 C.2         1 OZZ      -0.0658
      7 N7         39.5852   -0.2104  -13.6277 N.pl3       1 OZZ      -0.2105
      8 O8         39.9187   -4.8973  -12.6817 O.3         1 OZZ      -0.3846
      9 O9         38.5083   -3.4042  -14.4333 O.3         1 OZZ      -0.3834
     10 C10        39.1110   -2.6133   -8.9443 C.2         1 OZZ      -0.0744
     11 C11        39.5182   -2.9099   -7.5804 C.3         1 OZZ       0.0473
     12 N12        38.9952   -4.1577   -7.1052 N.am        1 OZZ      -0.2765
     13 C13        37.7214   -4.4182   -6.8220 C.2         1 OZZ       0.2411
     14 C14        37.3176   -5.6902   -6.4239 C.ar        1 OZZ       0.2482
     15 C15        36.1970   -6.3231   -7.0217 C.ar        1 OZZ       0.3921
     16 C16        35.8125   -7.6155   -6.6146 C.ar        1 OZZ       0.3797
     17 C17        36.5146   -8.2664   -5.5849 C.ar        1 OZZ       0.1691
     18 C18        37.6205   -7.6605   -4.9472 C.ar        1 OZZ       0.2168
     19 C19        38.0169   -6.3748   -5.3960 C.ar        1 OZZ       0.1162
     20 N20        38.2717   -8.2928   -3.9271 N.2         1 OZZ      -0.1404
     21 O21        35.5195   -5.6980   -8.0280 O.3         1 OZZ      -0.1763
     22 O22        34.7625   -8.2358   -7.2083 O.3         1 OZZ      -0.1825
     23 O23        36.8725   -3.5408   -6.9356 O.2         1 OZZ      -0.3823
     24 O24        37.8936   -9.4577   -3.4729 O.2         1 OZZ      -0.4541
     25 O25        39.2166   -7.8110   -3.3574 O.2         1 OZZ      -0.4541
     26 C26        40.7357    0.2513  -13.1135 C.2         1 OZZ       0.0592
     27 C27        41.3216    1.3643  -13.6024 C.2         1 OZZ      -0.0116
     28 C28        40.7430    2.0095  -14.6594 C.2         1 OZZ       0.0683
     29 C29        39.0583    0.3841  -14.7110 C.2         1 OZZ       0.0592
     30 C30        39.6134    1.4972  -15.2355 C.2         1 OZZ      -0.0116
     31 O31        41.2424    3.0384  -15.0958 O.2         1 OZZ      -0.4519
     32 H1         41.1040   -3.2474  -12.3597 H           1 OZZ       0.0667
     33 H2         40.3518   -2.4914  -14.4423 H           1 OZZ       0.0678
     34 H3         37.8835   -1.3363  -13.2567 H           1 OZZ       0.0999
     35 H4         38.1757   -3.3479  -11.4340 H           1 OZZ       0.0749
     36 H5         40.4775   -3.7486   -9.9117 H           1 OZZ       0.0477
     37 H6         40.5042   -5.1188  -13.4360 H           1 OZZ       0.2102
     38 H7         38.3573   -2.9083  -15.2647 H           1 OZZ       0.2101
     39 H8         38.3376   -1.9975   -9.0652 H           1 OZZ       0.0470
     40 H9         39.1828   -2.1137   -6.9093 H           1 OZZ       0.0643
     41 H10        40.6087   -2.9413   -7.5176 H           1 OZZ       0.0643
     42 H11        39.6310   -4.8810   -6.9861 H           1 OZZ       0.1867
     43 H12        36.1999   -9.1967   -5.3002 H           1 OZZ       0.1086
     44 H13        38.8086   -5.9106   -4.9405 H           1 OZZ       0.1563
     45 H14        35.2227   -6.3841   -8.6609 H           1 OZZ       0.3540
     46 H15        35.0670   -9.1486   -7.4029 H           1 OZZ       0.3497
     47 H16        41.1881   -0.2180  -12.3606 H           1 OZZ       0.1185
     48 H17        42.1690    1.7013  -13.2016 H           1 OZZ       0.0387
     49 H18        38.2479    0.0136  -15.1580 H           1 OZZ       0.1185
     50 H19        39.2094    1.9265  -16.0370 H           1 OZZ       0.0387
@<TRIPOS>BOND
     1     1     2   1
     2     1     5   1
     3     1     8   1
     4     2     3   1
     5     2     9   1
     6     3     4   1
     7     3     7   1
     8     4     5   1
     9     5     6   1
    10     6    10   2
    11     7    26   1
    12     7    29   1
    13    10    11   1
    14    11    12   1
    15    12    13  am
    16    13    14   1
    17    13    23   2
    18    14    15  ar
    19    14    19  ar
    20    15    16  ar
    21    15    21   1
    22    16    17  ar
    23    16    22   1
    24    17    18  ar
    25    18    19  ar
    26    18    20   1
    27    20    24   2
    28    20    25   2
    29    26    27   2
    30    27    28   1
    31    28    30   1
    32    28    31   2
    33    29    30   2
    34     1    32   1
    35     2    33   1
    36     3    34   1
    37     5    35   1
    38     6    36   1
    39     8    37   1
    40     9    38   1
    41    10    39   1
    42    11    40   1
    43    11    41   1
    44    12    42   1
    45    17    43   1
    46    19    44   1
    47    21    45   1
    48    22    46   1
    49    26    47   1
    50    27    48   1
    51    29    49   1
    52    30    50   1
@<TRIPOS>SUBSTRUCTURE
     1  OZZ      1

