@<TRIPOS>MOLECULE
3ozt_ligand_063
    50    52
SMALL
GAST_HUCK
****
This file was generated by PARSER (from files_GN.cpp)

@<TRIPOS>ATOM
      1 C1         36.8017   -8.5033   -5.8551 C.3         1 OZZ       0.1189
      2 C2         36.1397   -7.5887   -6.8889 C.3         1 OZZ       0.1403
      3 C3         36.0941   -6.2008   -6.1891 C.3         1 OZZ       0.2027
      4 O4         37.1007   -6.2640   -5.1487 O.3         1 OZZ      -0.3296
      5 C5         37.7781   -7.5321   -5.1572 C.3         1 OZZ       0.1082
      6 C6         39.0897   -7.4090   -5.8011 C.2         1 OZZ      -0.0658
      7 N7         36.2078   -5.0518   -7.0350 N.pl3       1 OZZ      -0.2105
      8 O8         35.8396   -9.0132   -4.9328 O.3         1 OZZ      -0.3846
      9 O9         34.8558   -8.0715   -7.2930 O.3         1 OZZ      -0.3834
     10 C10        40.1220   -6.7519   -5.2379 C.2         1 OZZ      -0.0744
     11 C11        41.4699   -6.7566   -5.7927 C.3         1 OZZ       0.0473
     12 N12        41.6230   -6.0096   -7.0054 N.am        1 OZZ      -0.2765
     13 C13        41.4004   -4.7094   -7.1620 C.2         1 OZZ       0.2411
     14 C14        41.5773   -4.0923   -8.3935 C.ar        1 OZZ       0.2482
     15 C15        40.5799   -3.2335   -8.9217 C.ar        1 OZZ       0.3921
     16 C16        40.7588   -2.6031  -10.1636 C.ar        1 OZZ       0.3797
     17 C17        41.9370   -2.8078  -10.8962 C.ar        1 OZZ       0.1691
     18 C18        42.9684   -3.6480  -10.4071 C.ar        1 OZZ       0.2168
     19 C19        42.7600   -4.2926   -9.1596 C.ar        1 OZZ       0.1162
     20 N20        44.1189   -3.8084  -11.1229 N.2         1 OZZ      -0.1404
     21 O21        39.4172   -3.0113   -8.2575 O.3         1 OZZ      -0.1763
     22 O22        39.7883   -1.8139  -10.6780 O.3         1 OZZ      -0.1825
     23 O23        41.0129   -4.0271   -6.2124 O.2         1 OZZ      -0.3823
     24 O24        44.3187   -3.2195  -12.2713 O.2         1 OZZ      -0.4541
     25 O25        45.0257   -4.5031  -10.7428 O.2         1 OZZ      -0.4541
     26 C26        36.7991   -3.9320   -6.5744 C.2         1 OZZ       0.0592
     27 C27        36.7366   -2.7685   -7.2522 C.2         1 OZZ      -0.0116
     28 C28        36.1114   -2.7391   -8.4652 C.2         1 OZZ       0.0683
     29 C29        35.5256   -4.9890   -8.1934 C.2         1 OZZ       0.0592
     30 C30        35.4799   -3.8556   -8.9303 C.2         1 OZZ      -0.0116
     31 O31        36.1857   -1.7427   -9.1690 O.2         1 OZZ      -0.4519
     32 H1         37.3107   -9.3479   -6.3295 H           1 OZZ       0.0667
     33 H2         36.7868   -7.5278   -7.7681 H           1 OZZ       0.0678
     34 H3         35.1398   -6.1216   -5.6672 H           1 OZZ       0.0999
     35 H4         37.9327   -7.8574   -4.1228 H           1 OZZ       0.0749
     36 H5         39.2455   -7.8800   -6.6681 H           1 OZZ       0.0477
     37 H6         35.3811   -9.7188   -5.4387 H           1 OZZ       0.2102
     38 H7         34.9765   -9.0255   -7.4425 H           1 OZZ       0.2101
     39 H8         39.9745   -6.2948   -4.3677 H           1 OZZ       0.0470
     40 H9         41.7635   -7.7917   -5.9897 H           1 OZZ       0.0643
     41 H10        42.1716   -6.3643   -5.0505 H           1 OZZ       0.0643
     42 H11        41.9351   -6.5004   -7.7830 H           1 OZZ       0.1867
     43 H12        42.0307   -2.3430  -11.8020 H           1 OZZ       0.1086
     44 H13        43.4905   -4.9042   -8.7854 H           1 OZZ       0.1563
     45 H14        38.8917   -3.8368   -8.4187 H           1 OZZ       0.3540
     46 H15        39.1040   -2.4435  -10.9997 H           1 OZZ       0.3497
     47 H16        37.2875   -3.9255   -5.7077 H           1 OZZ       0.1185
     48 H17        37.1478   -1.9448   -6.8754 H           1 OZZ       0.0387
     49 H18        35.0336   -5.7756   -8.5461 H           1 OZZ       0.1185
     50 H19        34.9817   -3.8370   -9.7907 H           1 OZZ       0.0387
@<TRIPOS>BOND
     1     1     2   1
     2     1     5   1
     3     1     8   1
     4     2     3   1
     5     2     9   1
     6     3     4   1
     7     3     7   1
     8     4     5   1
     9     5     6   1
    10     6    10   2
    11     7    26   1
    12     7    29   1
    13    10    11   1
    14    11    12   1
    15    12    13  am
    16    13    14   1
    17    13    23   2
    18    14    15  ar
    19    14    19  ar
    20    15    16  ar
    21    15    21   1
    22    16    17  ar
    23    16    22   1
    24    17    18  ar
    25    18    19  ar
    26    18    20   1
    27    20    24   2
    28    20    25   2
    29    26    27   2
    30    27    28   1
    31    28    30   1
    32    28    31   2
    33    29    30   2
    34     1    32   1
    35     2    33   1
    36     3    34   1
    37     5    35   1
    38     6    36   1
    39     8    37   1
    40     9    38   1
    41    10    39   1
    42    11    40   1
    43    11    41   1
    44    12    42   1
    45    17    43   1
    46    19    44   1
    47    21    45   1
    48    22    46   1
    49    26    47   1
    50    27    48   1
    51    29    49   1
    52    30    50   1
@<TRIPOS>SUBSTRUCTURE
     1  OZZ      1

