@<TRIPOS>MOLECULE
3ozt_ligand_060
    50    52
SMALL
GAST_HUCK
****
This file was generated by PARSER (from files_GN.cpp)

@<TRIPOS>ATOM
      1 C1         36.1989    0.2731  -12.8171 C.3         1 OZZ       0.1189
      2 C2         35.2804    1.4801  -12.5733 C.3         1 OZZ       0.1403
      3 C3         34.4807    1.5593  -13.9007 C.3         1 OZZ       0.2027
      4 O4         34.4476    0.2383  -14.4647 O.3         1 OZZ      -0.3296
      5 C5         35.3410   -0.6229  -13.7461 C.3         1 OZZ       0.1082
      6 C6         34.5354   -1.5851  -13.0086 C.2         1 OZZ      -0.0658
      7 N7         33.1531    2.0752  -13.8340 N.pl3       1 OZZ      -0.2105
      8 O8         37.4087    0.6586  -13.4808 O.3         1 OZZ      -0.3846
      9 O9         36.0049    2.6763  -12.2828 O.3         1 OZZ      -0.3834
     10 C10        34.5388   -2.9122  -13.2267 C.2         1 OZZ      -0.0744
     11 C11        33.8255   -3.8547  -12.3727 C.3         1 OZZ       0.0473
     12 N12        34.5998   -4.2413  -11.2313 N.am        1 OZZ      -0.2765
     13 C13        35.0484   -3.4120  -10.2898 C.2         1 OZZ       0.2411
     14 C14        35.7863   -3.8954   -9.2137 C.ar        1 OZZ       0.2482
     15 C15        36.9028   -3.1737   -8.7287 C.ar        1 OZZ       0.3921
     16 C16        37.6476   -3.6801   -7.6482 C.ar        1 OZZ       0.3797
     17 C17        37.2844   -4.8914   -7.0379 C.ar        1 OZZ       0.1691
     18 C18        36.1696   -5.6311   -7.4924 C.ar        1 OZZ       0.2168
     19 C19        35.4315   -5.1141   -8.5851 C.ar        1 OZZ       0.1162
     20 N20        35.8118   -6.7934   -6.8767 N.2         1 OZZ      -0.1404
     21 O21        37.3143   -2.0307   -9.3435 O.3         1 OZZ      -0.1763
     22 O22        38.7276   -3.0079   -7.1883 O.3         1 OZZ      -0.1825
     23 O23        34.8397   -2.2023  -10.3570 O.2         1 OZZ      -0.3823
     24 O24        36.4721   -7.2952   -5.8617 O.2         1 OZZ      -0.4541
     25 O25        34.8168   -7.4005   -7.1723 O.2         1 OZZ      -0.4541
     26 C26        32.2497    1.4860  -13.0399 C.2         1 OZZ       0.0592
     27 C27        30.9903    1.9538  -12.9287 C.2         1 OZZ      -0.0116
     28 C28        30.6093    3.0002  -13.7121 C.2         1 OZZ       0.0683
     29 C29        32.7623    3.0864  -14.6278 C.2         1 OZZ       0.0592
     30 C30        31.4973    3.5581  -14.5855 C.2         1 OZZ      -0.0116
     31 O31        29.4534    3.3897  -13.6709 O.2         1 OZZ      -0.4519
     32 H1         36.4729   -0.2173  -11.8759 H           1 OZZ       0.0667
     33 H2         34.6304    1.2586  -11.7277 H           1 OZZ       0.0678
     34 H3         35.1025    2.1478  -14.5882 H           1 OZZ       0.0999
     35 H4         35.9858   -1.1299  -14.4706 H           1 OZZ       0.0749
     36 H5         33.9825   -1.2361  -12.2629 H           1 OZZ       0.0477
     37 H6         37.9580   -0.1568  -13.5036 H           1 OZZ       0.2102
     38 H7         35.3200    3.3613  -12.1405 H           1 OZZ       0.2101
     39 H8         35.1283   -3.2887  -13.9386 H           1 OZZ       0.0470
     40 H9         33.5943   -4.7423  -12.9666 H           1 OZZ       0.0643
     41 H10        32.8673   -3.4421  -12.0326 H           1 OZZ       0.0643
     42 H11        34.8115   -5.1865  -11.1466 H           1 OZZ       0.1867
     43 H12        37.8471   -5.2309   -6.2553 H           1 OZZ       0.1086
     44 H13        34.6155   -5.6239   -8.9290 H           1 OZZ       0.1563
     45 H14        38.2267   -2.2212   -9.6594 H           1 OZZ       0.3540
     46 H15        39.5044   -3.5443   -7.4962 H           1 OZZ       0.3497
     47 H16        32.4827    0.6850  -12.5001 H           1 OZZ       0.1185
     48 H17        30.3563    1.5317  -12.2906 H           1 OZZ       0.0387
     49 H18        33.3878    3.5037  -15.2774 H           1 OZZ       0.1185
     50 H19        31.2175    4.2995  -15.1894 H           1 OZZ       0.0387
@<TRIPOS>BOND
     1     1     2   1
     2     1     5   1
     3     1     8   1
     4     2     3   1
     5     2     9   1
     6     3     4   1
     7     3     7   1
     8     4     5   1
     9     5     6   1
    10     6    10   2
    11     7    26   1
    12     7    29   1
    13    10    11   1
    14    11    12   1
    15    12    13  am
    16    13    14   1
    17    13    23   2
    18    14    15  ar
    19    14    19  ar
    20    15    16  ar
    21    15    21   1
    22    16    17  ar
    23    16    22   1
    24    17    18  ar
    25    18    19  ar
    26    18    20   1
    27    20    24   2
    28    20    25   2
    29    26    27   2
    30    27    28   1
    31    28    30   1
    32    28    31   2
    33    29    30   2
    34     1    32   1
    35     2    33   1
    36     3    34   1
    37     5    35   1
    38     6    36   1
    39     8    37   1
    40     9    38   1
    41    10    39   1
    42    11    40   1
    43    11    41   1
    44    12    42   1
    45    17    43   1
    46    19    44   1
    47    21    45   1
    48    22    46   1
    49    26    47   1
    50    27    48   1
    51    29    49   1
    52    30    50   1
@<TRIPOS>SUBSTRUCTURE
     1  OZZ      1

