@<TRIPOS>MOLECULE
3ozt_ligand_054
    50    52
SMALL
GAST_HUCK
****
This file was generated by PARSER (from files_GN.cpp)

@<TRIPOS>ATOM
      1 C1         36.2587   -7.8296   -6.4765 C.3         1 OZZ       0.1189
      2 C2         36.5661   -6.3501   -6.7967 C.3         1 OZZ       0.1403
      3 C3         36.7167   -5.6933   -5.4010 C.3         1 OZZ       0.2027
      4 O4         37.3471   -6.7388   -4.6507 O.3         1 OZZ      -0.3296
      5 C5         36.6599   -7.9637   -4.9753 C.3         1 OZZ       0.1082
      6 C6         37.4744   -9.1238   -4.6494 C.2         1 OZZ      -0.0658
      7 N7         37.4229   -4.4669   -5.2101 N.pl3       1 OZZ      -0.2105
      8 O8         34.8921   -8.1726   -6.7061 O.3         1 OZZ      -0.3846
      9 O9         35.5619   -5.6676   -7.5440 O.3         1 OZZ      -0.3834
     10 C10        38.0403   -9.3040   -3.4340 C.2         1 OZZ      -0.0744
     11 C11        38.8886  -10.4318   -3.1085 C.3         1 OZZ       0.0473
     12 N12        40.0847  -10.4374   -3.8935 N.am        1 OZZ      -0.2765
     13 C13        41.0766  -11.3175   -3.8025 C.2         1 OZZ       0.2411
     14 C14        42.1196  -11.3396   -4.7350 C.ar        1 OZZ       0.2482
     15 C15        42.5865  -10.1638   -5.3825 C.ar        1 OZZ       0.3921
     16 C16        43.5864  -10.2408   -6.3729 C.ar        1 OZZ       0.3797
     17 C17        44.1340  -11.4814   -6.7296 C.ar        1 OZZ       0.1691
     18 C18        43.7202  -12.6761   -6.0976 C.ar        1 OZZ       0.2168
     19 C19        42.7174  -12.5766   -5.0979 C.ar        1 OZZ       0.1162
     20 N20        44.2690  -13.8768   -6.4422 N.2         1 OZZ      -0.1404
     21 O21        42.1184   -8.9343   -5.0416 O.3         1 OZZ      -0.1763
     22 O22        44.0368   -9.1245   -7.0022 O.3         1 OZZ      -0.1825
     23 O23        41.0370  -12.1669   -2.9194 O.2         1 OZZ      -0.3823
     24 O24        45.1812  -13.9896   -7.3712 O.2         1 OZZ      -0.4541
     25 O25        43.9442  -14.9152   -5.9237 O.2         1 OZZ      -0.4541
     26 C26        38.2772   -3.9645   -6.1181 C.2         1 OZZ       0.0592
     27 C27        39.0256   -2.8744   -5.8609 C.2         1 OZZ      -0.0116
     28 C28        38.8982   -2.2504   -4.6551 C.2         1 OZZ       0.0683
     29 C29        37.2911   -3.8324   -4.0280 C.2         1 OZZ       0.0592
     30 C30        38.0063   -2.7225   -3.7368 C.2         1 OZZ      -0.0116
     31 O31        39.5927   -1.2790   -4.3970 O.2         1 OZZ      -0.4519
     32 H1         36.8669   -8.4730   -7.1205 H           1 OZZ       0.0667
     33 H2         37.5035   -6.3361   -7.3515 H           1 OZZ       0.0678
     34 H3         35.6902   -5.5649   -5.0234 H           1 OZZ       0.0999
     35 H4         35.7562   -8.0104   -4.3576 H           1 OZZ       0.0749
     36 H5         37.6172   -9.8267   -5.3385 H           1 OZZ       0.0477
     37 H6         34.8376   -9.1300   -6.4955 H           1 OZZ       0.2102
     38 H7         35.5313   -6.1139   -8.4139 H           1 OZZ       0.2101
     39 H8         37.8812   -8.6227   -2.7261 H           1 OZZ       0.0470
     40 H9         38.3445  -11.3626   -3.2833 H           1 OZZ       0.0643
     41 H10        39.1591  -10.3873   -2.0488 H           1 OZZ       0.0643
     42 H11        40.1414   -9.7715   -4.5931 H           1 OZZ       0.1867
     43 H12        44.8507  -11.5052   -7.4628 H           1 OZZ       0.1086
     44 H13        42.3917  -13.4353   -4.6489 H           1 OZZ       0.1563
     45 H14        41.8769   -8.5111   -5.8913 H           1 OZZ       0.3540
     46 H15        44.5001   -8.6125   -6.3077 H           1 OZZ       0.3497
     47 H16        38.4169   -4.3974   -6.9946 H           1 OZZ       0.1185
     48 H17        39.6728   -2.5447   -6.5411 H           1 OZZ       0.0387
     49 H18        36.6542   -4.1602   -3.3358 H           1 OZZ       0.1185
     50 H19        37.8714   -2.2477   -2.8741 H           1 OZZ       0.0387
@<TRIPOS>BOND
     1     1     2   1
     2     1     5   1
     3     1     8   1
     4     2     3   1
     5     2     9   1
     6     3     4   1
     7     3     7   1
     8     4     5   1
     9     5     6   1
    10     6    10   2
    11     7    26   1
    12     7    29   1
    13    10    11   1
    14    11    12   1
    15    12    13  am
    16    13    14   1
    17    13    23   2
    18    14    15  ar
    19    14    19  ar
    20    15    16  ar
    21    15    21   1
    22    16    17  ar
    23    16    22   1
    24    17    18  ar
    25    18    19  ar
    26    18    20   1
    27    20    24   2
    28    20    25   2
    29    26    27   2
    30    27    28   1
    31    28    30   1
    32    28    31   2
    33    29    30   2
    34     1    32   1
    35     2    33   1
    36     3    34   1
    37     5    35   1
    38     6    36   1
    39     8    37   1
    40     9    38   1
    41    10    39   1
    42    11    40   1
    43    11    41   1
    44    12    42   1
    45    17    43   1
    46    19    44   1
    47    21    45   1
    48    22    46   1
    49    26    47   1
    50    27    48   1
    51    29    49   1
    52    30    50   1
@<TRIPOS>SUBSTRUCTURE
     1  OZZ      1

