@<TRIPOS>MOLECULE
3ozt_ligand_008
    50    52
SMALL
GAST_HUCK
****
This file was generated by PARSER (from files_GN.cpp)

@<TRIPOS>ATOM
      1 C1         38.6407   -1.7315  -14.2272 C.3         1 OZZ       0.1189
      2 C2         39.5349   -2.8349  -13.6505 C.3         1 OZZ       0.1403
      3 C3         40.4058   -2.0906  -12.6014 C.3         1 OZZ       0.2027
      4 O4         39.5031   -1.1155  -12.0572 O.3         1 OZZ      -0.3296
      5 C5         38.5494   -0.7072  -13.0560 C.3         1 OZZ       0.1082
      6 C6         37.2411   -0.5801  -12.4306 C.2         1 OZZ      -0.0658
      7 N7         41.0313   -2.8038  -11.5324 N.pl3       1 OZZ      -0.2105
      8 O8         39.2377   -1.1260  -15.3742 O.3         1 OZZ      -0.3846
      9 O9         40.3319   -3.5003  -14.6346 O.3         1 OZZ      -0.3834
     10 C10        36.5856   -1.6276  -11.8905 C.2         1 OZZ      -0.0744
     11 C11        35.4209   -1.4854  -11.0343 C.3         1 OZZ       0.0473
     12 N12        35.2698   -2.5457  -10.0813 N.am        1 OZZ      -0.2765
     13 C13        36.2252   -3.0219   -9.2766 C.2         1 OZZ       0.2411
     14 C14        36.0372   -4.1319   -8.4387 C.ar        1 OZZ       0.2482
     15 C15        35.2452   -5.2525   -8.8200 C.ar        1 OZZ       0.3921
     16 C16        35.1253   -6.3678   -7.9646 C.ar        1 OZZ       0.3797
     17 C17        35.7933   -6.3903   -6.7374 C.ar        1 OZZ       0.1691
     18 C18        36.6125   -5.3174   -6.3234 C.ar        1 OZZ       0.2168
     19 C19        36.7062   -4.1950   -7.1865 C.ar        1 OZZ       0.1162
     20 N20        37.2841   -5.3691   -5.1394 N.2         1 OZZ      -0.1404
     21 O21        34.6336   -5.3357  -10.0302 O.3         1 OZZ      -0.1763
     22 O22        34.3517   -7.4315   -8.2823 O.3         1 OZZ      -0.1825
     23 O23        37.3296   -2.4776   -9.3082 O.2         1 OZZ      -0.3823
     24 O24        37.2425   -6.4193   -4.3627 O.2         1 OZZ      -0.4541
     25 O25        37.9754   -4.4689   -4.7424 O.2         1 OZZ      -0.4541
     26 C26        41.1880   -4.1352  -11.5310 C.2         1 OZZ       0.0592
     27 C27        41.6318   -4.7872  -10.4361 C.2         1 OZZ      -0.0116
     28 C28        41.9492   -4.0695   -9.3179 C.2         1 OZZ       0.0683
     29 C29        41.4528   -2.1010  -10.4717 C.2         1 OZZ       0.0592
     30 C30        41.8951   -2.7060   -9.3475 C.2         1 OZZ      -0.0116
     31 O31        42.2941   -4.6478   -8.2940 O.2         1 OZZ      -0.4519
     32 H1         37.6588   -2.1288  -14.5154 H           1 OZZ       0.0667
     33 H2         38.8949   -3.5836  -13.1621 H           1 OZZ       0.0678
     34 H3         41.1940   -1.5650  -13.1524 H           1 OZZ       0.0999
     35 H4         38.8592    0.2826  -13.4175 H           1 OZZ       0.0749
     36 H5         36.8737    0.3349  -12.2966 H           1 OZZ       0.0477
     37 H6         39.0754   -1.7611  -16.1072 H           1 OZZ       0.2102
     38 H7         39.6977   -3.8261  -15.3096 H           1 OZZ       0.2101
     39 H8         36.9668   -2.5451  -12.0261 H           1 OZZ       0.0470
     40 H9         34.5152   -1.4535  -11.6614 H           1 OZZ       0.0643
     41 H10        35.4817   -0.5335  -10.4785 H           1 OZZ       0.0643
     42 H11        34.3827   -2.9339  -10.0082 H           1 OZZ       0.1867
     43 H12        35.6805   -7.2132   -6.1397 H           1 OZZ       0.1086
     44 H13        37.2853   -3.4040   -6.8988 H           1 OZZ       0.1563
     45 H14        33.7479   -4.9464   -9.8909 H           1 OZZ       0.3540
     46 H15        34.7053   -7.7724   -9.1306 H           1 OZZ       0.3497
     47 H16        41.0105   -4.6818  -12.3373 H           1 OZZ       0.1185
     48 H17        41.7596   -5.7760  -10.4553 H           1 OZZ       0.0387
     49 H18        41.4450   -1.0993  -10.4811 H           1 OZZ       0.1185
     50 H19        42.1788   -2.1613   -8.5645 H           1 OZZ       0.0387
@<TRIPOS>BOND
     1     1     2   1
     2     1     5   1
     3     1     8   1
     4     2     3   1
     5     2     9   1
     6     3     4   1
     7     3     7   1
     8     4     5   1
     9     5     6   1
    10     6    10   2
    11     7    26   1
    12     7    29   1
    13    10    11   1
    14    11    12   1
    15    12    13  am
    16    13    14   1
    17    13    23   2
    18    14    15  ar
    19    14    19  ar
    20    15    16  ar
    21    15    21   1
    22    16    17  ar
    23    16    22   1
    24    17    18  ar
    25    18    19  ar
    26    18    20   1
    27    20    24   2
    28    20    25   2
    29    26    27   2
    30    27    28   1
    31    28    30   1
    32    28    31   2
    33    29    30   2
    34     1    32   1
    35     2    33   1
    36     3    34   1
    37     5    35   1
    38     6    36   1
    39     8    37   1
    40     9    38   1
    41    10    39   1
    42    11    40   1
    43    11    41   1
    44    12    42   1
    45    17    43   1
    46    19    44   1
    47    21    45   1
    48    22    46   1
    49    26    47   1
    50    27    48   1
    51    29    49   1
    52    30    50   1
@<TRIPOS>SUBSTRUCTURE
     1  OZZ      1

