@<TRIPOS>MOLECULE
3ozt_ligand_081
    50    52
SMALL
GAST_HUCK
****
This file was generated by PARSER (from files_GN.cpp)

@<TRIPOS>ATOM
      1 C1         36.7394   -8.5277   -5.5363 C.3         1 OZZ       0.1189
      2 C2         36.2317   -7.6088   -6.6598 C.3         1 OZZ       0.1403
      3 C3         36.0894   -6.2152   -5.9816 C.3         1 OZZ       0.2027
      4 O4         37.0426   -6.2294   -4.8923 O.3         1 OZZ      -0.3296
      5 C5         37.4557   -7.5643   -4.5617 C.3         1 OZZ       0.1082
      6 C6         38.9131   -7.6509   -4.5896 C.2         1 OZZ      -0.0658
      7 N7         36.2273   -5.0729   -6.8477 N.pl3       1 OZZ      -0.2105
      8 O8         35.6538   -9.1902   -4.8821 O.3         1 OZZ      -0.3846
      9 O9         35.0156   -8.1032   -7.2343 O.3         1 OZZ      -0.3834
     10 C10        39.6515   -7.2353   -5.6372 C.2         1 OZZ      -0.0744
     11 C11        41.0949   -7.3655   -5.7190 C.3         1 OZZ       0.0473
     12 N12        41.4902   -8.7378   -5.6287 N.am        1 OZZ      -0.2765
     13 C13        42.6723   -9.2570   -5.9540 C.2         1 OZZ       0.2411
     14 C14        42.9338  -10.6215   -5.7831 C.ar        1 OZZ       0.2482
     15 C15        42.2900  -11.4009   -4.7810 C.ar        1 OZZ       0.3921
     16 C16        42.5782  -12.7715   -4.6420 C.ar        1 OZZ       0.3797
     17 C17        43.5003  -13.3917   -5.4991 C.ar        1 OZZ       0.1691
     18 C18        44.1683  -12.6620   -6.5094 C.ar        1 OZZ       0.2168
     19 C19        43.8691  -11.2803   -6.6279 C.ar        1 OZZ       0.1162
     20 N20        45.0617  -13.2745   -7.3369 N.2         1 OZZ      -0.1404
     21 O21        41.4176  -10.8533   -3.8938 O.3         1 OZZ      -0.1763
     22 O22        41.9838  -13.4943   -3.6654 O.3         1 OZZ      -0.1825
     23 O23        43.5111   -8.5277   -6.4893 O.2         1 OZZ      -0.3823
     24 O24        45.3566  -14.5433   -7.2355 O.2         1 OZZ      -0.4541
     25 O25        45.6491  -12.6901   -8.2132 O.2         1 OZZ      -0.4541
     26 C26        36.8672   -3.9575   -6.4315 C.2         1 OZZ       0.0592
     27 C27        36.8787   -2.8321   -7.1745 C.2         1 OZZ      -0.0116
     28 C28        36.2265   -2.8189   -8.3735 C.2         1 OZZ       0.0683
     29 C29        35.5920   -5.0477   -8.0351 C.2         1 OZZ       0.0592
     30 C30        35.5865   -3.9427   -8.8094 C.2         1 OZZ      -0.0116
     31 O31        36.2495   -1.8161   -9.0741 O.2         1 OZZ      -0.4519
     32 H1         37.4021   -9.3022   -5.9416 H           1 OZZ       0.0667
     33 H2         36.9970   -7.5435   -7.4399 H           1 OZZ       0.0678
     34 H3         35.0953   -6.1644   -5.5150 H           1 OZZ       0.0999
     35 H4         37.1213   -7.7741   -3.5390 H           1 OZZ       0.0749
     36 H5         39.3700   -8.0621   -3.7971 H           1 OZZ       0.0477
     37 H6         35.3315   -9.8425   -5.5394 H           1 OZZ       0.2102
     38 H7         35.2012   -9.0475   -7.4191 H           1 OZZ       0.2101
     39 H8         39.1772   -6.8315   -6.4136 H           1 OZZ       0.0470
     40 H9         41.5746   -6.8028   -4.9079 H           1 OZZ       0.0643
     41 H10        41.4333   -6.9551   -6.6772 H           1 OZZ       0.0643
     42 H11        40.8195   -9.3613   -5.2946 H           1 OZZ       0.1867
     43 H12        43.6881  -14.3890   -5.3694 H           1 OZZ       0.1086
     44 H13        44.3333  -10.7443   -7.3660 H           1 OZZ       0.1563
     45 H14        40.6830  -11.4996   -3.8062 H           1 OZZ       0.3540
     46 H15        41.3663  -14.0994   -4.1264 H           1 OZZ       0.3497
     47 H16        37.3381   -3.9259   -5.5510 H           1 OZZ       0.1185
     48 H17        37.3556   -2.0227   -6.8462 H           1 OZZ       0.0387
     49 H18        35.1238   -5.8519   -8.3832 H           1 OZZ       0.1185
     50 H19        35.1320   -3.9569   -9.6923 H           1 OZZ       0.0387
@<TRIPOS>BOND
     1     1     2   1
     2     1     5   1
     3     1     8   1
     4     2     3   1
     5     2     9   1
     6     3     4   1
     7     3     7   1
     8     4     5   1
     9     5     6   1
    10     6    10   2
    11     7    26   1
    12     7    29   1
    13    10    11   1
    14    11    12   1
    15    12    13  am
    16    13    14   1
    17    13    23   2
    18    14    15  ar
    19    14    19  ar
    20    15    16  ar
    21    15    21   1
    22    16    17  ar
    23    16    22   1
    24    17    18  ar
    25    18    19  ar
    26    18    20   1
    27    20    24   2
    28    20    25   2
    29    26    27   2
    30    27    28   1
    31    28    30   1
    32    28    31   2
    33    29    30   2
    34     1    32   1
    35     2    33   1
    36     3    34   1
    37     5    35   1
    38     6    36   1
    39     8    37   1
    40     9    38   1
    41    10    39   1
    42    11    40   1
    43    11    41   1
    44    12    42   1
    45    17    43   1
    46    19    44   1
    47    21    45   1
    48    22    46   1
    49    26    47   1
    50    27    48   1
    51    29    49   1
    52    30    50   1
@<TRIPOS>SUBSTRUCTURE
     1  OZZ      1

