@<TRIPOS>MOLECULE
3ozt_ligand_071
    50    52
SMALL
GAST_HUCK
****
This file was generated by PARSER (from files_GN.cpp)

@<TRIPOS>ATOM
      1 C1         35.3766   -3.7289  -10.7893 C.3         1 OZZ       0.1189
      2 C2         34.7864   -5.1444  -10.5862 C.3         1 OZZ       0.1403
      3 C3         33.6338   -5.1834  -11.6209 C.3         1 OZZ       0.2027
      4 O4         34.1660   -4.4595  -12.7414 O.3         1 OZZ      -0.3296
      5 C5         34.8366   -3.3102  -12.1909 C.3         1 OZZ       0.1082
      6 C6         35.8513   -2.8184  -13.1070 C.2         1 OZZ      -0.0658
      7 N7         33.0880   -6.4243  -12.0671 N.pl3       1 OZZ      -0.2105
      8 O8         34.9867   -2.8042   -9.7731 O.3         1 OZZ      -0.3846
      9 O9         34.3442   -5.4225   -9.2602 O.3         1 OZZ      -0.3834
     10 C10        36.9276   -3.5369  -13.4742 C.2         1 OZZ      -0.0744
     11 C11        38.0153   -2.9511  -14.2419 C.3         1 OZZ       0.0473
     12 N12        39.2238   -3.7203  -14.2523 N.am        1 OZZ      -0.2765
     13 C13        39.9823   -3.9742  -13.1918 C.2         1 OZZ       0.2411
     14 C14        41.1590   -4.6778  -13.3360 C.ar        1 OZZ       0.2482
     15 C15        41.2583   -6.0177  -12.8990 C.ar        1 OZZ       0.3921
     16 C16        42.4628   -6.7218  -13.0740 C.ar        1 OZZ       0.3797
     17 C17        43.5851   -6.0793  -13.6239 C.ar        1 OZZ       0.1691
     18 C18        43.5335   -4.7227  -14.0289 C.ar        1 OZZ       0.2168
     19 C19        42.2959   -4.0439  -13.8944 C.ar        1 OZZ       0.1162
     20 N20        44.6412   -4.0993  -14.5296 N.2         1 OZZ      -0.1404
     21 O21        40.1868   -6.6405  -12.3336 O.3         1 OZZ      -0.1763
     22 O22        42.5333   -8.0432  -12.7673 O.3         1 OZZ      -0.1825
     23 O23        39.6587   -3.6248  -12.0649 O.2         1 OZZ      -0.3823
     24 O24        45.7916   -4.7061  -14.6514 O.2         1 OZZ      -0.4541
     25 O25        44.6400   -2.9467  -14.8742 O.2         1 OZZ      -0.4541
     26 C26        33.8463   -7.5175  -12.2463 C.2         1 OZZ       0.0592
     27 C27        33.3164   -8.6694  -12.7104 C.2         1 OZZ      -0.0116
     28 C28        31.9919   -8.7110  -13.0436 C.2         1 OZZ       0.0683
     29 C29        31.7989   -6.4552  -12.4606 C.2         1 OZZ       0.0592
     30 C30        31.2329   -7.5816  -12.9392 C.2         1 OZZ      -0.0116
     31 O31        31.4879   -9.7491  -13.4506 O.2         1 OZZ      -0.4519
     32 H1         36.4685   -3.7803  -10.7627 H           1 OZZ       0.0667
     33 H2         35.5617   -5.8692  -10.8465 H           1 OZZ       0.0678
     34 H3         32.8233   -4.5829  -11.1757 H           1 OZZ       0.0999
     35 H4         34.0758   -2.5262  -12.0714 H           1 OZZ       0.0749
     36 H5         35.7687   -1.8791  -13.4333 H           1 OZZ       0.0477
     37 H6         34.0111   -2.8066   -9.7862 H           1 OZZ       0.2102
     38 H7         35.1486   -5.3568   -8.7041 H           1 OZZ       0.2101
     39 H8         37.0157   -4.4757  -13.1497 H           1 OZZ       0.0470
     40 H9         38.2573   -1.9578  -13.8513 H           1 OZZ       0.0643
     41 H10        37.6698   -2.8272  -15.2691 H           1 OZZ       0.0643
     42 H11        39.5331   -4.0347  -15.1194 H           1 OZZ       0.1867
     43 H12        44.4496   -6.6159  -13.7264 H           1 OZZ       0.1086
     44 H13        42.2250   -3.0642  -14.1851 H           1 OZZ       0.1563
     45 H14        40.5349   -7.1024  -11.5408 H           1 OZZ       0.3540
     46 H15        42.3094   -8.4826  -13.6136 H           1 OZZ       0.3497
     47 H16        34.8204   -7.5110  -12.0571 H           1 OZZ       0.1185
     48 H17        33.8902   -9.4770  -12.8178 H           1 OZZ       0.0387
     49 H18        31.2273   -5.6460  -12.4040 H           1 OZZ       0.1185
     50 H19        30.2764   -7.5785  -13.2149 H           1 OZZ       0.0387
@<TRIPOS>BOND
     1     1     2   1
     2     1     5   1
     3     1     8   1
     4     2     3   1
     5     2     9   1
     6     3     4   1
     7     3     7   1
     8     4     5   1
     9     5     6   1
    10     6    10   2
    11     7    26   1
    12     7    29   1
    13    10    11   1
    14    11    12   1
    15    12    13  am
    16    13    14   1
    17    13    23   2
    18    14    15  ar
    19    14    19  ar
    20    15    16  ar
    21    15    21   1
    22    16    17  ar
    23    16    22   1
    24    17    18  ar
    25    18    19  ar
    26    18    20   1
    27    20    24   2
    28    20    25   2
    29    26    27   2
    30    27    28   1
    31    28    30   1
    32    28    31   2
    33    29    30   2
    34     1    32   1
    35     2    33   1
    36     3    34   1
    37     5    35   1
    38     6    36   1
    39     8    37   1
    40     9    38   1
    41    10    39   1
    42    11    40   1
    43    11    41   1
    44    12    42   1
    45    17    43   1
    46    19    44   1
    47    21    45   1
    48    22    46   1
    49    26    47   1
    50    27    48   1
    51    29    49   1
    52    30    50   1
@<TRIPOS>SUBSTRUCTURE
     1  OZZ      1

