@<TRIPOS>MOLECULE
3ozt_ligand_009
    50    52
SMALL
GAST_HUCK
****
This file was generated by PARSER (from files_GN.cpp)

@<TRIPOS>ATOM
      1 C1         35.1950   -3.0115  -11.8059 C.3         1 OZZ       0.1189
      2 C2         36.2016   -2.8007  -12.9457 C.3         1 OZZ       0.1403
      3 C3         36.3840   -1.2612  -12.9624 C.3         1 OZZ       0.2027
      4 O4         36.2808   -0.8339  -11.5876 O.3         1 OZZ      -0.3296
      5 C5         35.4411   -1.7761  -10.8885 C.3         1 OZZ       0.1082
      6 C6         35.9880   -2.1127   -9.5671 C.2         1 OZZ      -0.0658
      7 N7         37.6083   -0.7666  -13.5065 N.pl3       1 OZZ      -0.2105
      8 O8         33.8551   -3.0163  -12.3077 O.3         1 OZZ      -0.3846
      9 O9         35.7959   -3.3357  -14.2034 O.3         1 OZZ      -0.3834
     10 C10        37.2922   -2.0823   -9.2308 C.2         1 OZZ      -0.0744
     11 C11        37.7762   -2.2898   -7.8792 C.3         1 OZZ       0.0473
     12 N12        37.3933   -3.5842   -7.3866 N.am        1 OZZ      -0.2765
     13 C13        38.1684   -4.5622   -6.9123 C.2         1 OZZ       0.2411
     14 C14        37.6512   -5.8192   -6.5542 C.ar        1 OZZ       0.2482
     15 C15        36.4067   -6.3245   -7.0370 C.ar        1 OZZ       0.3921
     16 C16        35.9674   -7.6217   -6.7048 C.ar        1 OZZ       0.3797
     17 C17        36.7408   -8.4324   -5.8582 C.ar        1 OZZ       0.1691
     18 C18        37.9695   -7.9820   -5.3294 C.ar        1 OZZ       0.2168
     19 C19        38.3975   -6.6735   -5.6960 C.ar        1 OZZ       0.1162
     20 N20        38.7072   -8.7829   -4.5077 N.2         1 OZZ      -0.1404
     21 O21        35.5833   -5.5849   -7.8328 O.3         1 OZZ      -0.1763
     22 O22        34.7829   -8.0762   -7.1841 O.3         1 OZZ      -0.1825
     23 O23        39.3686   -4.3275   -6.7815 O.2         1 OZZ      -0.3823
     24 O24        38.3300   -9.9918   -4.1847 O.2         1 OZZ      -0.4541
     25 O25        39.7517   -8.4343   -4.0293 O.2         1 OZZ      -0.4541
     26 C26        37.5966    0.1832  -14.4591 C.2         1 OZZ       0.0592
     27 C27        38.7384    0.7546  -14.8958 C.2         1 OZZ      -0.0116
     28 C28        39.9271    0.3657  -14.3424 C.2         1 OZZ       0.0683
     29 C29        38.7855   -1.1645  -12.9985 C.2         1 OZZ       0.0592
     30 C30        39.9525   -0.6077  -13.3927 C.2         1 OZZ      -0.0116
     31 O31        40.9744    0.9002  -14.6879 O.2         1 OZZ      -0.4519
     32 H1         35.3759   -3.9664  -11.2953 H           1 OZZ       0.0667
     33 H2         37.1320   -3.3099  -12.6623 H           1 OZZ       0.0678
     34 H3         35.5010   -0.8426  -13.4757 H           1 OZZ       0.0999
     35 H4         34.4921   -1.2633  -10.7123 H           1 OZZ       0.0749
     36 H5         35.3146   -2.3829   -8.8823 H           1 OZZ       0.0477
     37 H6         33.2995   -3.1067  -11.5021 H           1 OZZ       0.2102
     38 H7         35.1957   -2.6703  -14.6084 H           1 OZZ       0.2101
     39 H8         37.9607   -1.8612   -9.9319 H           1 OZZ       0.0470
     40 H9         37.3330   -1.5230   -7.2306 H           1 OZZ       0.0643
     41 H10        38.8627   -2.1395   -7.8631 H           1 OZZ       0.0643
     42 H11        36.4334   -3.7596   -7.3925 H           1 OZZ       0.1867
     43 H12        36.3838   -9.3603   -5.6165 H           1 OZZ       0.1086
     44 H13        39.2852   -6.3373   -5.3124 H           1 OZZ       0.1563
     45 H14        35.9445   -5.6998   -8.7373 H           1 OZZ       0.3540
     46 H15        34.8797   -9.0462   -7.2667 H           1 OZZ       0.3497
     47 H16        36.7402    0.4999  -14.8578 H           1 OZZ       0.1185
     48 H17        38.7140    1.4403  -15.6106 H           1 OZZ       0.0387
     49 H18        38.8335   -1.8818  -12.3049 H           1 OZZ       0.1185
     50 H19        40.8092   -0.9130  -12.9910 H           1 OZZ       0.0387
@<TRIPOS>BOND
     1     1     2   1
     2     1     5   1
     3     1     8   1
     4     2     3   1
     5     2     9   1
     6     3     4   1
     7     3     7   1
     8     4     5   1
     9     5     6   1
    10     6    10   2
    11     7    26   1
    12     7    29   1
    13    10    11   1
    14    11    12   1
    15    12    13  am
    16    13    14   1
    17    13    23   2
    18    14    15  ar
    19    14    19  ar
    20    15    16  ar
    21    15    21   1
    22    16    17  ar
    23    16    22   1
    24    17    18  ar
    25    18    19  ar
    26    18    20   1
    27    20    24   2
    28    20    25   2
    29    26    27   2
    30    27    28   1
    31    28    30   1
    32    28    31   2
    33    29    30   2
    34     1    32   1
    35     2    33   1
    36     3    34   1
    37     5    35   1
    38     6    36   1
    39     8    37   1
    40     9    38   1
    41    10    39   1
    42    11    40   1
    43    11    41   1
    44    12    42   1
    45    17    43   1
    46    19    44   1
    47    21    45   1
    48    22    46   1
    49    26    47   1
    50    27    48   1
    51    29    49   1
    52    30    50   1
@<TRIPOS>SUBSTRUCTURE
     1  OZZ      1

