@<TRIPOS>MOLECULE
3ozt_ligand_006
    50    52
SMALL
GAST_HUCK
****
This file was generated by PARSER (from files_GN.cpp)

@<TRIPOS>ATOM
      1 C1         36.5883   -2.0866  -11.3667 C.3         1 OZZ       0.1189
      2 C2         36.8057   -0.7348  -12.0694 C.3         1 OZZ       0.1403
      3 C3         35.6932   -0.6369  -13.1612 C.3         1 OZZ       0.2027
      4 O4         34.8545   -1.7836  -12.9013 O.3         1 OZZ      -0.3296
      5 C5         35.6596   -2.8289  -12.3445 C.3         1 OZZ       0.1082
      6 C6         34.8050   -3.7958  -11.6757 C.2         1 OZZ      -0.0658
      7 N7         34.9458    0.5831  -13.2592 N.pl3       1 OZZ      -0.2105
      8 O8         37.7947   -2.8080  -11.1087 O.3         1 OZZ      -0.3846
      9 O9         38.1056   -0.6406  -12.6557 O.3         1 OZZ      -0.3834
     10 C10        35.0817   -5.1087  -11.5683 C.2         1 OZZ      -0.0744
     11 C11        34.2938   -6.0241  -10.7560 C.3         1 OZZ       0.0473
     12 N12        34.9811   -6.4593   -9.5756 N.am        1 OZZ      -0.2765
     13 C13        35.3804   -5.7006   -8.5567 C.2         1 OZZ       0.2411
     14 C14        36.0327   -6.2449   -7.4466 C.ar        1 OZZ       0.2482
     15 C15        35.6594   -7.4964   -6.8911 C.ar        1 OZZ       0.3921
     16 C16        36.3131   -7.9935   -5.7459 C.ar        1 OZZ       0.3797
     17 C17        37.3653   -7.2679   -5.1607 C.ar        1 OZZ       0.1691
     18 C18        37.7921   -6.0312   -5.6985 C.ar        1 OZZ       0.2168
     19 C19        37.0999   -5.5366   -6.8345 C.ar        1 OZZ       0.1162
     20 N20        38.8317   -5.3432   -5.1403 N.2         1 OZZ      -0.1404
     21 O21        34.6244   -8.2147   -7.3952 O.3         1 OZZ      -0.1763
     22 O22        35.9002   -9.1555   -5.1799 O.3         1 OZZ      -0.1825
     23 O23        35.2125   -4.4872   -8.6018 O.2         1 OZZ      -0.3823
     24 O24        39.4894   -5.7854   -4.1023 O.2         1 OZZ      -0.4541
     25 O25        39.2208   -4.2899   -5.5723 O.2         1 OZZ      -0.4541
     26 C26        33.7258    0.5771  -13.8309 C.2         1 OZZ       0.0592
     27 C27        32.9729    1.6953  -13.8872 C.2         1 OZZ      -0.0116
     28 C28        33.4902    2.8719  -13.4185 C.2         1 OZZ       0.0683
     29 C29        35.4990    1.7707  -12.9430 C.2         1 OZZ       0.0592
     30 C30        34.7864    2.9155  -12.9847 C.2         1 OZZ      -0.0116
     31 O31        32.8191    3.8958  -13.4423 O.2         1 OZZ      -0.4519
     32 H1         36.0817   -1.9088  -10.4101 H           1 OZZ       0.0667
     33 H2         36.6974    0.0548  -11.3202 H           1 OZZ       0.0678
     34 H3         36.1476   -0.8043  -14.1438 H           1 OZZ       0.0999
     35 H4         36.2402   -3.2974  -13.1494 H           1 OZZ       0.0749
     36 H5         34.0216   -3.4330  -11.1812 H           1 OZZ       0.0477
     37 H6         37.5148   -3.6528  -10.6907 H           1 OZZ       0.2102
     38 H7         38.1985    0.2886  -12.9527 H           1 OZZ       0.2101
     39 H8         35.8960   -5.4679  -12.0113 H           1 OZZ       0.0470
     40 H9         34.0713   -6.9064  -11.3594 H           1 OZZ       0.0643
     41 H10        33.3341   -5.5911  -10.4612 H           1 OZZ       0.0643
     42 H11        35.1563   -7.4124   -9.5101 H           1 OZZ       0.1867
     43 H12        37.8139   -7.6538   -4.3276 H           1 OZZ       0.1086
     44 H13        37.3978   -4.6431   -7.2395 H           1 OZZ       0.1563
     45 H14        34.9672   -9.1224   -7.5226 H           1 OZZ       0.3540
     46 H15        36.6169   -9.7985   -5.3604 H           1 OZZ       0.3497
     47 H16        33.3544   -0.2499  -14.2440 H           1 OZZ       0.1185
     48 H17        32.0706    1.6697  -14.3068 H           1 OZZ       0.0387
     49 H18        36.4575    1.8450  -12.6864 H           1 OZZ       0.1185
     50 H19        35.2201    3.7811  -12.7534 H           1 OZZ       0.0387
@<TRIPOS>BOND
     1     1     2   1
     2     1     5   1
     3     1     8   1
     4     2     3   1
     5     2     9   1
     6     3     4   1
     7     3     7   1
     8     4     5   1
     9     5     6   1
    10     6    10   2
    11     7    26   1
    12     7    29   1
    13    10    11   1
    14    11    12   1
    15    12    13  am
    16    13    14   1
    17    13    23   2
    18    14    15  ar
    19    14    19  ar
    20    15    16  ar
    21    15    21   1
    22    16    17  ar
    23    16    22   1
    24    17    18  ar
    25    18    19  ar
    26    18    20   1
    27    20    24   2
    28    20    25   2
    29    26    27   2
    30    27    28   1
    31    28    30   1
    32    28    31   2
    33    29    30   2
    34     1    32   1
    35     2    33   1
    36     3    34   1
    37     5    35   1
    38     6    36   1
    39     8    37   1
    40     9    38   1
    41    10    39   1
    42    11    40   1
    43    11    41   1
    44    12    42   1
    45    17    43   1
    46    19    44   1
    47    21    45   1
    48    22    46   1
    49    26    47   1
    50    27    48   1
    51    29    49   1
    52    30    50   1
@<TRIPOS>SUBSTRUCTURE
     1  OZZ      1

