@<TRIPOS>MOLECULE
3ozt_ligand_082
    50    52
SMALL
GAST_HUCK
****
This file was generated by PARSER (from files_GN.cpp)

@<TRIPOS>ATOM
      1 C1         32.9708    1.7497  -13.3089 C.3         1 OZZ       0.1189
      2 C2         33.8014    0.5188  -13.7253 C.3         1 OZZ       0.1403
      3 C3         35.2714    0.9441  -13.4297 C.3         1 OZZ       0.2027
      4 O4         35.2115    2.2581  -12.8485 O.3         1 OZZ      -0.3296
      5 C5         34.0168    2.8825  -13.3344 C.3         1 OZZ       0.1082
      6 C6         33.6966    4.0444  -12.5238 C.2         1 OZZ      -0.0658
      7 N7         36.0021    0.0673  -12.5729 N.pl3       1 OZZ      -0.2105
      8 O8         31.8600    2.0226  -14.1677 O.3         1 OZZ      -0.3846
      9 O9         33.6271    0.2100  -15.1077 O.3         1 OZZ      -0.3834
     10 C10        34.4408    5.1612  -12.5563 C.2         1 OZZ      -0.0744
     11 C11        34.1411    6.3513  -11.7833 C.3         1 OZZ       0.0473
     12 N12        35.2469    6.6924  -10.9448 N.am        1 OZZ      -0.2765
     13 C13        36.2522    7.4990  -11.2606 C.2         1 OZZ       0.2411
     14 C14        37.2711    7.7158  -10.3427 C.ar        1 OZZ       0.2482
     15 C15        38.6318    7.5646  -10.7052 C.ar        1 OZZ       0.3921
     16 C16        39.6431    7.7317   -9.7426 C.ar        1 OZZ       0.3797
     17 C17        39.3148    8.0945   -8.4257 C.ar        1 OZZ       0.1691
     18 C18        37.9690    8.2895   -8.0318 C.ar        1 OZZ       0.2168
     19 C19        36.9621    8.0652   -9.0048 C.ar        1 OZZ       0.1162
     20 N20        37.6656    8.6851   -6.7606 N.2         1 OZZ      -0.1404
     21 O21        38.9900    7.1819  -11.9580 O.3         1 OZZ      -0.1763
     22 O22        40.9423    7.5367  -10.0712 O.3         1 OZZ      -0.1825
     23 O23        36.3209    8.0225  -12.3669 O.2         1 OZZ      -0.3823
     24 O24        38.5844    8.9057   -5.8584 O.2         1 OZZ      -0.4541
     25 O25        36.5361    8.8956   -6.3996 O.2         1 OZZ      -0.4541
     26 C26        37.1571   -0.4851  -12.9792 C.2         1 OZZ       0.0592
     27 C27        37.8337   -1.3506  -12.1965 C.2         1 OZZ      -0.0116
     28 C28        37.3367   -1.6585  -10.9603 C.2         1 OZZ       0.0683
     29 C29        35.5517   -0.1935  -11.3345 C.2         1 OZZ       0.0592
     30 C30        36.1808   -1.0728  -10.5283 C.2         1 OZZ      -0.0116
     31 O31        38.0020   -2.3328  -10.1864 O.2         1 OZZ      -0.4519
     32 H1         32.5933    1.5978  -12.2931 H           1 OZZ       0.0667
     33 H2         33.4994   -0.3565  -13.1457 H           1 OZZ       0.0678
     34 H3         35.7802    1.0766  -14.3942 H           1 OZZ       0.0999
     35 H4         34.1619    3.2044  -14.3747 H           1 OZZ       0.0749
     36 H5         32.8918    4.0174  -11.9414 H           1 OZZ       0.0477
     37 H6         31.3962    2.7835  -13.7609 H           1 OZZ       0.2102
     38 H7         32.6625    0.0800  -15.2194 H           1 OZZ       0.2101
     39 H8         35.2211    5.2017  -13.1741 H           1 OZZ       0.0470
     40 H9         33.2750    6.2121  -11.1326 H           1 OZZ       0.0643
     41 H10        33.8978    7.1648  -12.4714 H           1 OZZ       0.0643
     42 H11        35.2892    6.2516  -10.0807 H           1 OZZ       0.1867
     43 H12        40.0757    8.2180   -7.7547 H           1 OZZ       0.1086
     44 H13        35.9799    8.1781   -8.7355 H           1 OZZ       0.1563
     45 H14        39.0150    8.0144  -12.4786 H           1 OZZ       0.3540
     46 H15        41.2275    8.3927  -10.4480 H           1 OZZ       0.3497
     47 H16        37.5522   -0.2579  -13.8651 H           1 OZZ       0.1185
     48 H17        38.6969   -1.7374  -12.5074 H           1 OZZ       0.0387
     49 H18        34.7366    0.2582  -10.9869 H           1 OZZ       0.1185
     50 H19        35.8247   -1.2609   -9.6186 H           1 OZZ       0.0387
@<TRIPOS>BOND
     1     1     2   1
     2     1     5   1
     3     1     8   1
     4     2     3   1
     5     2     9   1
     6     3     4   1
     7     3     7   1
     8     4     5   1
     9     5     6   1
    10     6    10   2
    11     7    26   1
    12     7    29   1
    13    10    11   1
    14    11    12   1
    15    12    13  am
    16    13    14   1
    17    13    23   2
    18    14    15  ar
    19    14    19  ar
    20    15    16  ar
    21    15    21   1
    22    16    17  ar
    23    16    22   1
    24    17    18  ar
    25    18    19  ar
    26    18    20   1
    27    20    24   2
    28    20    25   2
    29    26    27   2
    30    27    28   1
    31    28    30   1
    32    28    31   2
    33    29    30   2
    34     1    32   1
    35     2    33   1
    36     3    34   1
    37     5    35   1
    38     6    36   1
    39     8    37   1
    40     9    38   1
    41    10    39   1
    42    11    40   1
    43    11    41   1
    44    12    42   1
    45    17    43   1
    46    19    44   1
    47    21    45   1
    48    22    46   1
    49    26    47   1
    50    27    48   1
    51    29    49   1
    52    30    50   1
@<TRIPOS>SUBSTRUCTURE
     1  OZZ      1

