@<TRIPOS>MOLECULE
3ozt_ligand_013
    50    52
SMALL
GAST_HUCK
****
This file was generated by PARSER (from files_GN.cpp)

@<TRIPOS>ATOM
      1 C1         35.5678   -7.3818   -6.0764 C.3         1 OZZ       0.1189
      2 C2         36.4046   -8.1027   -5.0115 C.3         1 OZZ       0.1403
      3 C3         37.6359   -8.6181   -5.7932 C.3         1 OZZ       0.2027
      4 O4         37.7766   -7.7351   -6.9230 O.3         1 OZZ      -0.3296
      5 C5         36.6207   -6.9068   -7.0987 C.3         1 OZZ       0.1082
      6 C6         36.9950   -5.5034   -6.9913 C.2         1 OZZ      -0.0658
      7 N7         38.8193   -8.7706   -5.0049 N.pl3       1 OZZ      -0.2105
      8 O8         34.6272   -8.2401   -6.7189 O.3         1 OZZ      -0.3846
      9 O9         35.6783   -9.1533   -4.3749 O.3         1 OZZ      -0.3834
     10 C10        36.3331   -4.5244   -7.6396 C.2         1 OZZ      -0.0744
     11 C11        36.7330   -3.1256   -7.6292 C.3         1 OZZ       0.0473
     12 N12        36.7495   -2.3907   -8.8618 N.am        1 OZZ      -0.2765
     13 C13        36.2696   -2.6683  -10.0715 C.2         1 OZZ       0.2411
     14 C14        36.4172   -1.7472  -11.1071 C.ar        1 OZZ       0.2482
     15 C15        36.9754   -2.1246  -12.3578 C.ar        1 OZZ       0.3921
     16 C16        37.0520   -1.1768  -13.4036 C.ar        1 OZZ       0.3797
     17 C17        36.5963    0.1388  -13.2081 C.ar        1 OZZ       0.1691
     18 C18        36.0382    0.5521  -11.9773 C.ar        1 OZZ       0.2168
     19 C19        35.9643   -0.4131  -10.9439 C.ar        1 OZZ       0.1162
     20 N20        35.5554    1.8164  -11.8078 N.2         1 OZZ      -0.1404
     21 O21        37.4639   -3.3717  -12.6001 O.3         1 OZZ      -0.1763
     22 O22        37.5366   -1.5516  -14.6113 O.3         1 OZZ      -0.1825
     23 O23        35.6560   -3.7212  -10.2675 O.2         1 OZZ      -0.3823
     24 O24        35.6274    2.7249  -12.7433 O.2         1 OZZ      -0.4541
     25 O25        34.9977    2.1740  -10.8015 O.2         1 OZZ      -0.4541
     26 C26        38.8345   -9.6649   -3.9988 C.2         1 OZZ       0.0592
     27 C27        39.9244   -9.8368   -3.2224 C.2         1 OZZ      -0.0116
     28 C28        41.0550   -9.1138   -3.4945 C.2         1 OZZ       0.0683
     29 C29        39.9408   -8.0748   -5.2706 C.2         1 OZZ       0.0592
     30 C30        41.0599   -8.2296   -4.5340 C.2         1 OZZ      -0.0116
     31 O31        42.0601   -9.2676   -2.8136 O.2         1 OZZ      -0.4519
     32 H1         35.0083   -6.5536   -5.6326 H           1 OZZ       0.0667
     33 H2         36.7212   -7.3843   -4.2503 H           1 OZZ       0.0678
     34 H3         37.3848   -9.5941   -6.2244 H           1 OZZ       0.0999
     35 H4         36.2593   -7.0789   -8.1185 H           1 OZZ       0.0749
     36 H5         37.8128   -5.2701   -6.4667 H           1 OZZ       0.0477
     37 H6         35.0757   -9.1003   -6.8686 H           1 OZZ       0.2102
     38 H7         35.4380   -9.7766   -5.0956 H           1 OZZ       0.2101
     39 H8         35.5249   -4.7535   -8.1788 H           1 OZZ       0.0470
     40 H9         37.7323   -3.0159   -7.1965 H           1 OZZ       0.0643
     41 H10        36.0519   -2.5920   -6.9643 H           1 OZZ       0.0643
     42 H11        37.2125   -1.5385   -8.7966 H           1 OZZ       0.1867
     43 H12        36.6568    0.7937  -13.9873 H           1 OZZ       0.1086
     44 H13        35.5476   -0.1466  -10.0474 H           1 OZZ       0.1563
     45 H14        37.6906   -3.7661  -11.7311 H           1 OZZ       0.3540
     46 H15        36.8184   -1.3550  -15.2538 H           1 OZZ       0.3497
     47 H16        38.0356  -10.2256   -3.7993 H           1 OZZ       0.1185
     48 H17        39.9067  -10.4848   -2.4677 H           1 OZZ       0.0387
     49 H18        39.9848   -7.4257   -6.0229 H           1 OZZ       0.1185
     50 H19        41.8799   -7.7060   -4.7519 H           1 OZZ       0.0387
@<TRIPOS>BOND
     1     1     2   1
     2     1     5   1
     3     1     8   1
     4     2     3   1
     5     2     9   1
     6     3     4   1
     7     3     7   1
     8     4     5   1
     9     5     6   1
    10     6    10   2
    11     7    26   1
    12     7    29   1
    13    10    11   1
    14    11    12   1
    15    12    13  am
    16    13    14   1
    17    13    23   2
    18    14    15  ar
    19    14    19  ar
    20    15    16  ar
    21    15    21   1
    22    16    17  ar
    23    16    22   1
    24    17    18  ar
    25    18    19  ar
    26    18    20   1
    27    20    24   2
    28    20    25   2
    29    26    27   2
    30    27    28   1
    31    28    30   1
    32    28    31   2
    33    29    30   2
    34     1    32   1
    35     2    33   1
    36     3    34   1
    37     5    35   1
    38     6    36   1
    39     8    37   1
    40     9    38   1
    41    10    39   1
    42    11    40   1
    43    11    41   1
    44    12    42   1
    45    17    43   1
    46    19    44   1
    47    21    45   1
    48    22    46   1
    49    26    47   1
    50    27    48   1
    51    29    49   1
    52    30    50   1
@<TRIPOS>SUBSTRUCTURE
     1  OZZ      1

