@<TRIPOS>MOLECULE
3ozt_ligand_076
    50    52
SMALL
GAST_HUCK
****
This file was generated by PARSER (from files_GN.cpp)

@<TRIPOS>ATOM
      1 C1         37.2863   -1.3276  -13.9790 C.3         1 OZZ       0.1189
      2 C2         38.4317   -0.6956  -14.7981 C.3         1 OZZ       0.1403
      3 C3         39.6504   -0.7514  -13.8274 C.3         1 OZZ       0.2027
      4 O4         39.2142   -1.4830  -12.6690 O.3         1 OZZ      -0.3296
      5 C5         37.8054   -1.2522  -12.5293 C.3         1 OZZ       0.1082
      6 C6         37.2057   -2.2177  -11.6199 C.2         1 OZZ      -0.0658
      7 N7         40.8390   -1.3519  -14.3458 N.pl3       1 OZZ      -0.2105
      8 O8         36.0291   -0.6655  -14.1056 O.3         1 OZZ      -0.3846
      9 O9         38.1425    0.6421  -15.2013 O.3         1 OZZ      -0.3834
     10 C10        35.9010   -2.2124  -11.2972 C.2         1 OZZ      -0.0744
     11 C11        35.2801   -3.1746  -10.4056 C.3         1 OZZ       0.0473
     12 N12        34.2964   -3.9409  -11.1148 N.am        1 OZZ      -0.2765
     13 C13        33.9694   -5.2007  -10.8632 C.2         1 OZZ       0.2411
     14 C14        32.9805   -5.8360  -11.6002 C.ar        1 OZZ       0.2482
     15 C15        31.6497   -5.3574  -11.6446 C.ar        1 OZZ       0.3921
     16 C16        30.6482   -6.0975  -12.3025 C.ar        1 OZZ       0.3797
     17 C17        30.9940   -7.2643  -13.0143 C.ar        1 OZZ       0.1691
     18 C18        32.3232   -7.7449  -13.0331 C.ar        1 OZZ       0.2168
     19 C19        33.2951   -7.0288  -12.2884 C.ar        1 OZZ       0.1162
     20 N20        32.6564   -8.8692  -13.7310 N.2         1 OZZ      -0.1404
     21 O21        31.3082   -4.2179  -10.9904 O.3         1 OZZ      -0.1763
     22 O22        29.3555   -5.6907  -12.2182 O.3         1 OZZ      -0.1825
     23 O23        34.5227   -5.8461   -9.9792 O.2         1 OZZ      -0.3823
     24 O24        31.7816   -9.5682  -14.4011 O.2         1 OZZ      -0.4541
     25 O25        33.7876   -9.2753  -13.7892 O.2         1 OZZ      -0.4541
     26 C26        40.8013   -2.5931  -14.8547 C.2         1 OZZ       0.0592
     27 C27        41.8993   -3.1617  -15.4071 C.2         1 OZZ      -0.0116
     28 C28        43.0822   -2.4796  -15.3752 C.2         1 OZZ       0.0683
     29 C29        42.0137   -0.7023  -14.2850 C.2         1 OZZ       0.0592
     30 C30        43.1445   -1.2464  -14.7929 C.2         1 OZZ      -0.0116
     31 O31        44.0995   -3.0030  -15.8132 O.2         1 OZZ      -0.4519
     32 H1         37.1626   -2.3742  -14.2759 H           1 OZZ       0.0667
     33 H2         38.5986   -1.2733  -15.7088 H           1 OZZ       0.0678
     34 H3         39.8402    0.2728  -13.4752 H           1 OZZ       0.0999
     35 H4         37.6459   -0.2439  -12.1233 H           1 OZZ       0.0749
     36 H5         37.7939   -2.9105  -11.2162 H           1 OZZ       0.0477
     37 H6         35.7136   -0.8885  -15.0028 H           1 OZZ       0.2102
     38 H7         37.3665    0.5527  -15.7961 H           1 OZZ       0.2101
     39 H8         35.3078   -1.5122  -11.6819 H           1 OZZ       0.0470
     40 H9         34.7734   -2.6343   -9.6007 H           1 OZZ       0.0643
     41 H10        36.0309   -3.8266   -9.9455 H           1 OZZ       0.0643
     42 H11        33.8039   -3.4893  -11.8218 H           1 OZZ       0.1867
     43 H12        30.2565   -7.7594  -13.5194 H           1 OZZ       0.1086
     44 H13        34.2586   -7.3787  -12.2609 H           1 OZZ       0.1563
     45 H14        30.7829   -3.7051  -11.6412 H           1 OZZ       0.3540
     46 H15        28.8094   -6.4865  -12.4037 H           1 OZZ       0.3497
     47 H16        39.9590   -3.1203  -14.8590 H           1 OZZ       0.1185
     48 H17        41.8419   -4.0665  -15.8148 H           1 OZZ       0.0387
     49 H18        42.0890    0.1922  -13.8587 H           1 OZZ       0.1185
     50 H19        44.0084   -0.7583  -14.7250 H           1 OZZ       0.0387
@<TRIPOS>BOND
     1     1     2   1
     2     1     5   1
     3     1     8   1
     4     2     3   1
     5     2     9   1
     6     3     4   1
     7     3     7   1
     8     4     5   1
     9     5     6   1
    10     6    10   2
    11     7    26   1
    12     7    29   1
    13    10    11   1
    14    11    12   1
    15    12    13  am
    16    13    14   1
    17    13    23   2
    18    14    15  ar
    19    14    19  ar
    20    15    16  ar
    21    15    21   1
    22    16    17  ar
    23    16    22   1
    24    17    18  ar
    25    18    19  ar
    26    18    20   1
    27    20    24   2
    28    20    25   2
    29    26    27   2
    30    27    28   1
    31    28    30   1
    32    28    31   2
    33    29    30   2
    34     1    32   1
    35     2    33   1
    36     3    34   1
    37     5    35   1
    38     6    36   1
    39     8    37   1
    40     9    38   1
    41    10    39   1
    42    11    40   1
    43    11    41   1
    44    12    42   1
    45    17    43   1
    46    19    44   1
    47    21    45   1
    48    22    46   1
    49    26    47   1
    50    27    48   1
    51    29    49   1
    52    30    50   1
@<TRIPOS>SUBSTRUCTURE
     1  OZZ      1

