@<TRIPOS>MOLECULE
3ozt_ligand_030
    50    52
SMALL
GAST_HUCK
****
This file was generated by PARSER (from files_GN.cpp)

@<TRIPOS>ATOM
      1 C1         37.2423   -1.4226  -12.3791 C.3         1 OZZ       0.1189
      2 C2         36.9316   -0.1598  -13.2143 C.3         1 OZZ       0.1403
      3 C3         35.3695   -0.1392  -13.3128 C.3         1 OZZ       0.2027
      4 O4         34.9023   -1.1900  -12.4388 O.3         1 OZZ      -0.3296
      5 C5         35.9146   -2.2082  -12.4270 C.3         1 OZZ       0.1082
      6 C6         35.7226   -3.1528  -11.3369 C.2         1 OZZ      -0.0658
      7 N7         34.7201    1.0878  -12.9878 N.pl3       1 OZZ      -0.2105
      8 O8         38.3543   -2.1733  -12.8762 O.3         1 OZZ      -0.3846
      9 O9         37.5778   -0.1834  -14.4925 O.3         1 OZZ      -0.3834
     10 C10        35.5540   -2.7964  -10.0525 C.2         1 OZZ      -0.0744
     11 C11        35.3316   -3.7488   -8.9795 C.3         1 OZZ       0.0473
     12 N12        36.3141   -3.6021   -7.9543 N.am        1 OZZ      -0.2765
     13 C13        36.5346   -4.4611   -6.9641 C.2         1 OZZ       0.2411
     14 C14        37.5109   -4.1798   -6.0202 C.ar        1 OZZ       0.2482
     15 C15        38.5031   -5.1319   -5.6874 C.ar        1 OZZ       0.3921
     16 C16        39.4999   -4.8087   -4.7472 C.ar        1 OZZ       0.3797
     17 C17        39.4885   -3.5590   -4.1058 C.ar        1 OZZ       0.1691
     18 C18        38.4999   -2.5874   -4.3985 C.ar        1 OZZ       0.2168
     19 C19        37.5242   -2.9210   -5.3739 C.ar        1 OZZ       0.1162
     20 N20        38.4963   -1.3756   -3.7727 N.2         1 OZZ      -0.1404
     21 O21        38.5629   -6.3431   -6.3009 O.3         1 OZZ      -0.1763
     22 O22        40.4845   -5.6968   -4.4604 O.3         1 OZZ      -0.1825
     23 O23        35.9183   -5.5176   -6.8798 O.2         1 OZZ      -0.3823
     24 O24        39.3902   -1.0441   -2.8755 O.2         1 OZZ      -0.4541
     25 O25        37.6809   -0.5221   -4.0137 O.2         1 OZZ      -0.4541
     26 C26        33.7648    1.5932  -13.7919 C.2         1 OZZ       0.0592
     27 C27        33.1666    2.7716  -13.5155 C.2         1 OZZ      -0.0116
     28 C28        33.5229    3.4460  -12.3871 C.2         1 OZZ       0.0683
     29 C29        35.0062    1.7111  -11.8421 C.2         1 OZZ       0.0592
     30 C30        34.4363    2.8922  -11.5254 C.2         1 OZZ      -0.0116
     31 O31        33.0594    4.5557  -12.1639 O.2         1 OZZ      -0.4519
     32 H1         37.4673   -1.1204  -11.3489 H           1 OZZ       0.0667
     33 H2         37.3252    0.7136  -12.6979 H           1 OZZ       0.0678
     34 H3         35.1023   -0.4777  -14.3268 H           1 OZZ       0.0999
     35 H4         35.8559   -2.7601  -13.3715 H           1 OZZ       0.0749
     36 H5         35.6995   -4.1209  -11.5723 H           1 OZZ       0.0477
     37 H6         38.4667   -2.9259  -12.2601 H           1 OZZ       0.2102
     38 H7         36.9124   -0.5090  -15.1457 H           1 OZZ       0.2101
     39 H8         35.5464   -1.8309   -9.8187 H           1 OZZ       0.0470
     40 H9         35.3471   -4.7786   -9.3530 H           1 OZZ       0.0643
     41 H10        34.3469   -3.5644   -8.5504 H           1 OZZ       0.0643
     42 H11        36.8904   -2.8244   -7.9941 H           1 OZZ       0.1867
     43 H12        40.2260   -3.3507   -3.4271 H           1 OZZ       0.1086
     44 H13        36.7927   -2.2405   -5.6020 H           1 OZZ       0.1563
     45 H14        37.7838   -6.8467   -5.9362 H           1 OZZ       0.3540
     46 H15        41.1004   -5.6304   -5.2296 H           1 OZZ       0.3497
     47 H16        33.4458    1.0922  -14.5964 H           1 OZZ       0.1185
     48 H17        32.4510    3.1216  -14.1149 H           1 OZZ       0.0387
     49 H18        35.6629    1.3295  -11.1987 H           1 OZZ       0.1185
     50 H19        34.6878    3.3638  -10.6793 H           1 OZZ       0.0387
@<TRIPOS>BOND
     1     1     2   1
     2     1     5   1
     3     1     8   1
     4     2     3   1
     5     2     9   1
     6     3     4   1
     7     3     7   1
     8     4     5   1
     9     5     6   1
    10     6    10   2
    11     7    26   1
    12     7    29   1
    13    10    11   1
    14    11    12   1
    15    12    13  am
    16    13    14   1
    17    13    23   2
    18    14    15  ar
    19    14    19  ar
    20    15    16  ar
    21    15    21   1
    22    16    17  ar
    23    16    22   1
    24    17    18  ar
    25    18    19  ar
    26    18    20   1
    27    20    24   2
    28    20    25   2
    29    26    27   2
    30    27    28   1
    31    28    30   1
    32    28    31   2
    33    29    30   2
    34     1    32   1
    35     2    33   1
    36     3    34   1
    37     5    35   1
    38     6    36   1
    39     8    37   1
    40     9    38   1
    41    10    39   1
    42    11    40   1
    43    11    41   1
    44    12    42   1
    45    17    43   1
    46    19    44   1
    47    21    45   1
    48    22    46   1
    49    26    47   1
    50    27    48   1
    51    29    49   1
    52    30    50   1
@<TRIPOS>SUBSTRUCTURE
     1  OZZ      1

