@<TRIPOS>MOLECULE
3ozt_ligand_027
    50    52
SMALL
GAST_HUCK
****
This file was generated by PARSER (from files_GN.cpp)

@<TRIPOS>ATOM
      1 C1         40.0201  -10.1395   -1.8999 C.3         1 OZZ       0.1189
      2 C2         40.2341   -8.6331   -1.7153 C.3         1 OZZ       0.1403
      3 C3         40.9506   -8.2010   -3.0280 C.3         1 OZZ       0.2027
      4 O4         40.6631   -9.2425   -3.9943 O.3         1 OZZ      -0.3296
      5 C5         39.8147  -10.2548   -3.4236 C.3         1 OZZ       0.1082
      6 C6         38.4233  -10.1632   -3.8622 C.2         1 OZZ      -0.0658
      7 N7         40.6658   -6.8684   -3.4675 N.pl3       1 OZZ      -0.2105
      8 O8         41.1787  -10.8774   -1.4987 O.3         1 OZZ      -0.3846
      9 O9         40.9649   -8.3293   -0.5257 O.3         1 OZZ      -0.3834
     10 C10        37.8043   -9.0207   -4.2122 C.2         1 OZZ      -0.0744
     11 C11        36.4101   -8.9265   -4.6000 C.3         1 OZZ       0.0473
     12 N12        36.2023   -8.0615   -5.7257 N.am        1 OZZ      -0.2765
     13 C13        36.2399   -6.7338   -5.7218 C.2         1 OZZ       0.2411
     14 C14        35.9701   -5.9534   -6.8590 C.ar        1 OZZ       0.2482
     15 C15        35.1641   -6.3998   -7.9431 C.ar        1 OZZ       0.3921
     16 C16        34.8491   -5.5376   -9.0118 C.ar        1 OZZ       0.3797
     17 C17        35.3547   -4.2255   -9.0344 C.ar        1 OZZ       0.1691
     18 C18        36.1850   -3.7418   -7.9966 C.ar        1 OZZ       0.2168
     19 C19        36.4794   -4.6292   -6.9327 C.ar        1 OZZ       0.1162
     20 N20        36.6709   -2.4662   -8.0181 N.2         1 OZZ      -0.1404
     21 O21        34.5633   -7.6146   -7.9374 O.3         1 OZZ      -0.1763
     22 O22        34.0162   -5.9502  -10.0059 O.3         1 OZZ      -0.1825
     23 O23        36.5149   -6.1659   -4.6682 O.2         1 OZZ      -0.3823
     24 O24        36.4003   -1.6306   -8.9879 O.2         1 OZZ      -0.4541
     25 O25        37.3758   -2.0228   -7.1506 O.2         1 OZZ      -0.4541
     26 C26        40.1954   -6.6145   -4.7066 C.2         1 OZZ       0.0592
     27 C27        39.8023   -5.3741   -5.0684 C.2         1 OZZ      -0.0116
     28 C28        39.9277   -4.3508   -4.1748 C.2         1 OZZ       0.0683
     29 C29        40.8995   -5.8326   -2.6456 C.2         1 OZZ       0.0592
     30 C30        40.5180   -4.5768   -2.9625 C.2         1 OZZ      -0.0116
     31 O31        39.5295   -3.2274   -4.4593 O.2         1 OZZ      -0.4519
     32 H1         39.1636  -10.4955   -1.3227 H           1 OZZ       0.0667
     33 H2         39.2599   -8.1413   -1.6377 H           1 OZZ       0.0678
     34 H3         42.0300   -8.2494   -2.8564 H           1 OZZ       0.0999
     35 H4         40.1931  -11.2274   -3.7589 H           1 OZZ       0.0749
     36 H5         37.8942  -11.0072   -3.8750 H           1 OZZ       0.0477
     37 H6         41.8889  -10.6048   -2.1181 H           1 OZZ       0.2102
     38 H7         41.8276   -8.7824   -0.6223 H           1 OZZ       0.2101
     39 H8         38.3056   -8.1718   -4.1478 H           1 OZZ       0.0470
     40 H9         35.8438   -8.5573   -3.7412 H           1 OZZ       0.0643
     41 H10        36.0037   -9.9065   -4.8634 H           1 OZZ       0.0643
     42 H11        35.9781   -8.5012   -6.5606 H           1 OZZ       0.1867
     43 H12        35.1013   -3.6190   -9.8192 H           1 OZZ       0.1086
     44 H13        37.0711   -4.2785   -6.1759 H           1 OZZ       0.1563
     45 H14        34.9369   -8.0977   -8.7079 H           1 OZZ       0.3540
     46 H15        33.3392   -5.2467  -10.0800 H           1 OZZ       0.3497
     47 H16        40.1256   -7.3315   -5.3922 H           1 OZZ       0.1185
     48 H17        39.4424   -5.2086   -5.9843 H           1 OZZ       0.0387
     49 H18        41.3409   -5.9678   -1.7653 H           1 OZZ       0.1185
     50 H19        40.6825   -3.8292   -2.3252 H           1 OZZ       0.0387
@<TRIPOS>BOND
     1     1     2   1
     2     1     5   1
     3     1     8   1
     4     2     3   1
     5     2     9   1
     6     3     4   1
     7     3     7   1
     8     4     5   1
     9     5     6   1
    10     6    10   2
    11     7    26   1
    12     7    29   1
    13    10    11   1
    14    11    12   1
    15    12    13  am
    16    13    14   1
    17    13    23   2
    18    14    15  ar
    19    14    19  ar
    20    15    16  ar
    21    15    21   1
    22    16    17  ar
    23    16    22   1
    24    17    18  ar
    25    18    19  ar
    26    18    20   1
    27    20    24   2
    28    20    25   2
    29    26    27   2
    30    27    28   1
    31    28    30   1
    32    28    31   2
    33    29    30   2
    34     1    32   1
    35     2    33   1
    36     3    34   1
    37     5    35   1
    38     6    36   1
    39     8    37   1
    40     9    38   1
    41    10    39   1
    42    11    40   1
    43    11    41   1
    44    12    42   1
    45    17    43   1
    46    19    44   1
    47    21    45   1
    48    22    46   1
    49    26    47   1
    50    27    48   1
    51    29    49   1
    52    30    50   1
@<TRIPOS>SUBSTRUCTURE
     1  OZZ      1

