@<TRIPOS>MOLECULE
3ozt_ligand_078
    50    52
SMALL
GAST_HUCK
****
This file was generated by PARSER (from files_GN.cpp)

@<TRIPOS>ATOM
      1 C1         36.5710   -1.5359  -13.2444 C.3         1 OZZ       0.1189
      2 C2         37.5534   -2.6860  -13.5264 C.3         1 OZZ       0.1403
      3 C3         38.8205   -2.3284  -12.6953 C.3         1 OZZ       0.2027
      4 O4         38.3774   -1.3658  -11.7075 O.3         1 OZZ      -0.3296
      5 C5         36.9813   -1.0766  -11.8311 C.3         1 OZZ       0.1082
      6 C6         36.1982   -1.6705  -10.7460 C.2         1 OZZ      -0.0658
      7 N7         39.5696   -3.4184  -12.1367 N.pl3       1 OZZ      -0.2105
      8 O8         36.7359   -0.4691  -14.1837 O.3         1 OZZ      -0.3846
      9 O9         37.8425   -2.8278  -14.9192 O.3         1 OZZ      -0.3834
     10 C10        36.2464   -2.9650  -10.3763 C.2         1 OZZ      -0.0744
     11 C11        35.3335   -3.5750   -9.4255 C.3         1 OZZ       0.0473
     12 N12        36.0350   -4.3751   -8.4614 N.am        1 OZZ      -0.2765
     13 C13        35.7512   -5.6290   -8.0940 C.2         1 OZZ       0.2411
     14 C14        36.5147   -6.3566   -7.1526 C.ar        1 OZZ       0.2482
     15 C15        36.0674   -7.5990   -6.6086 C.ar        1 OZZ       0.3921
     16 C16        36.8708   -8.3239   -5.6995 C.ar        1 OZZ       0.3797
     17 C17        38.1304   -7.8378   -5.3266 C.ar        1 OZZ       0.1691
     18 C18        38.6224   -6.6166   -5.8371 C.ar        1 OZZ       0.2168
     19 C19        37.7953   -5.8991   -6.7383 C.ar        1 OZZ       0.1162
     20 N20        39.8589   -6.1584   -5.4788 N.2         1 OZZ      -0.1404
     21 O21        34.8567   -8.1353   -6.9379 O.3         1 OZZ      -0.1763
     22 O22        36.4326   -9.5013   -5.1851 O.3         1 OZZ      -0.1825
     23 O23        34.7906   -6.1707   -8.6287 O.2         1 OZZ      -0.3823
     24 O24        40.6321   -6.8098   -4.6503 O.2         1 OZZ      -0.4541
     25 O25        40.3239   -5.1305   -5.9008 O.2         1 OZZ      -0.4541
     26 C26        39.8338   -4.5211  -12.8661 C.2         1 OZZ       0.0592
     27 C27        40.5973   -5.5266  -12.3842 C.2         1 OZZ      -0.0116
     28 C28        41.1653   -5.3911  -11.1510 C.2         1 OZZ       0.0683
     29 C29        40.1636   -3.2888  -10.9340 C.2         1 OZZ       0.0592
     30 C30        40.9551   -4.2552  -10.4259 C.2         1 OZZ      -0.0116
     31 O31        41.8572   -6.2891  -10.6866 O.2         1 OZZ      -0.4519
     32 H1         35.5297   -1.8719  -13.2898 H           1 OZZ       0.0667
     33 H2         37.1185   -3.6222  -13.1782 H           1 OZZ       0.0678
     34 H3         39.5031   -1.7767  -13.3495 H           1 OZZ       0.0999
     35 H4         36.8741    0.0062  -11.7581 H           1 OZZ       0.0749
     36 H5         35.5414   -1.0773  -10.2875 H           1 OZZ       0.0477
     37 H6         36.4335   -0.8305  -15.0462 H           1 OZZ       0.2102
     38 H7         36.9892   -3.0697  -15.3389 H           1 OZZ       0.2101
     39 H8         36.8890   -3.5677  -10.8325 H           1 OZZ       0.0470
     40 H9         34.6236   -4.1654  -10.0063 H           1 OZZ       0.0643
     41 H10        34.7703   -2.8212   -8.8754 H           1 OZZ       0.0643
     42 H11        36.7719   -3.9364   -8.0099 H           1 OZZ       0.1867
     43 H12        38.6937   -8.3920   -4.6788 H           1 OZZ       0.1086
     44 H13        38.1689   -5.0318   -7.1264 H           1 OZZ       0.1563
     45 H14        34.9439   -9.1049   -6.8067 H           1 OZZ       0.3540
     46 H15        37.1435  -10.1503   -5.3924 H           1 OZZ       0.3497
     47 H16        39.4602   -4.6358  -13.7817 H           1 OZZ       0.1185
     48 H17        40.7499   -6.3448  -12.9276 H           1 OZZ       0.0387
     49 H18        40.0573   -2.4652  -10.3894 H           1 OZZ       0.1185
     50 H19        41.3832   -4.1317   -9.5356 H           1 OZZ       0.0387
@<TRIPOS>BOND
     1     1     2   1
     2     1     5   1
     3     1     8   1
     4     2     3   1
     5     2     9   1
     6     3     4   1
     7     3     7   1
     8     4     5   1
     9     5     6   1
    10     6    10   2
    11     7    26   1
    12     7    29   1
    13    10    11   1
    14    11    12   1
    15    12    13  am
    16    13    14   1
    17    13    23   2
    18    14    15  ar
    19    14    19  ar
    20    15    16  ar
    21    15    21   1
    22    16    17  ar
    23    16    22   1
    24    17    18  ar
    25    18    19  ar
    26    18    20   1
    27    20    24   2
    28    20    25   2
    29    26    27   2
    30    27    28   1
    31    28    30   1
    32    28    31   2
    33    29    30   2
    34     1    32   1
    35     2    33   1
    36     3    34   1
    37     5    35   1
    38     6    36   1
    39     8    37   1
    40     9    38   1
    41    10    39   1
    42    11    40   1
    43    11    41   1
    44    12    42   1
    45    17    43   1
    46    19    44   1
    47    21    45   1
    48    22    46   1
    49    26    47   1
    50    27    48   1
    51    29    49   1
    52    30    50   1
@<TRIPOS>SUBSTRUCTURE
     1  OZZ      1

