@<TRIPOS>MOLECULE
3ozt_ligand_090
    50    52
SMALL
GAST_HUCK
****
This file was generated by PARSER (from files_GN.cpp)

@<TRIPOS>ATOM
      1 C1         34.9305   -1.9409  -13.3335 C.3         1 OZZ       0.1189
      2 C2         34.3278   -0.6225  -13.8834 C.3         1 OZZ       0.1403
      3 C3         33.8377    0.1006  -12.6062 C.3         1 OZZ       0.2027
      4 O4         34.6646   -0.3981  -11.5468 O.3         1 OZZ      -0.3296
      5 C5         34.8643   -1.7986  -11.7935 C.3         1 OZZ       0.1082
      6 C6         36.0053   -2.3781  -11.1020 C.2         1 OZZ      -0.0658
      7 N7         33.8746    1.5244  -12.6697 N.pl3       1 OZZ      -0.2105
      8 O8         34.2086   -3.1056  -13.7374 O.3         1 OZZ      -0.3846
      9 O9         33.2575   -0.8394  -14.8094 O.3         1 OZZ      -0.3834
     10 C10        36.9489   -1.6603  -10.4614 C.2         1 OZZ      -0.0744
     11 C11        38.0063   -2.2478   -9.6647 C.3         1 OZZ       0.0473
     12 N12        38.8581   -3.1387  -10.3865 N.am        1 OZZ      -0.2765
     13 C13        39.6522   -2.8568  -11.4107 C.2         1 OZZ       0.2411
     14 C14        40.3722   -3.8822  -12.0196 C.ar        1 OZZ       0.2482
     15 C15        40.4369   -4.0187  -13.4288 C.ar        1 OZZ       0.3921
     16 C16        41.1097   -5.1183  -14.0016 C.ar        1 OZZ       0.3797
     17 C17        41.7166   -6.0875  -13.1793 C.ar        1 OZZ       0.1691
     18 C18        41.6994   -5.9728  -11.7693 C.ar        1 OZZ       0.2168
     19 C19        41.0350   -4.8516  -11.2182 C.ar        1 OZZ       0.1162
     20 N20        42.3068   -6.9081  -10.9838 N.2         1 OZZ      -0.1404
     21 O21        39.8097   -3.1169  -14.2356 O.3         1 OZZ      -0.1763
     22 O22        41.1813   -5.2876  -15.3488 O.3         1 OZZ      -0.1825
     23 O23        39.7287   -1.7069  -11.8415 O.2         1 OZZ      -0.3823
     24 O24        42.8846   -7.9664  -11.4761 O.2         1 OZZ      -0.4541
     25 O25        42.3257   -6.8381   -9.7844 O.2         1 OZZ      -0.4541
     26 C26        32.7358    2.2366  -12.6221 C.2         1 OZZ       0.0592
     27 C27        32.7566    3.5828  -12.6921 C.2         1 OZZ      -0.0116
     28 C28        33.9557    4.2214  -12.8165 C.2         1 OZZ       0.0683
     29 C29        35.0544    2.1630  -12.7389 C.2         1 OZZ       0.0592
     30 C30        35.1176    3.5083  -12.8146 C.2         1 OZZ      -0.0116
     31 O31        33.9890    5.4380  -12.9491 O.2         1 OZZ      -0.4519
     32 H1         35.9623   -2.0449  -13.6847 H           1 OZZ       0.0667
     33 H2         35.1030   -0.0467  -14.4000 H           1 OZZ       0.0678
     34 H3         32.8212   -0.2598  -12.4029 H           1 OZZ       0.0999
     35 H4         33.9713   -2.3093  -11.4145 H           1 OZZ       0.0749
     36 H5         36.0792   -3.3708  -11.0906 H           1 OZZ       0.0477
     37 H6         34.1922   -3.0317  -14.7122 H           1 OZZ       0.2102
     38 H7         32.8851    0.0487  -15.0142 H           1 OZZ       0.2101
     39 H8         36.8984   -0.6717  -10.4963 H           1 OZZ       0.0470
     40 H9         37.5462   -2.8145   -8.8501 H           1 OZZ       0.0643
     41 H10        38.6220   -1.4691   -9.2091 H           1 OZZ       0.0643
     42 H11        38.8402   -4.0633  -10.0900 H           1 OZZ       0.1867
     43 H12        42.1753   -6.8834  -13.6217 H           1 OZZ       0.1086
     44 H13        41.0179   -4.7437  -10.1979 H           1 OZZ       0.1563
     45 H14        39.6292   -3.5735  -15.0868 H           1 OZZ       0.3540
     46 H15        41.3872   -4.4005  -15.7205 H           1 OZZ       0.3497
     47 H16        31.8508    1.7869  -12.5248 H           1 OZZ       0.1185
     48 H17        31.9055    4.0911  -12.6315 H           1 OZZ       0.0387
     49 H18        35.9120    1.6537  -12.7452 H           1 OZZ       0.1185
     50 H19        35.9967    3.9615  -12.8826 H           1 OZZ       0.0387
@<TRIPOS>BOND
     1     1     2   1
     2     1     5   1
     3     1     8   1
     4     2     3   1
     5     2     9   1
     6     3     4   1
     7     3     7   1
     8     4     5   1
     9     5     6   1
    10     6    10   2
    11     7    26   1
    12     7    29   1
    13    10    11   1
    14    11    12   1
    15    12    13  am
    16    13    14   1
    17    13    23   2
    18    14    15  ar
    19    14    19  ar
    20    15    16  ar
    21    15    21   1
    22    16    17  ar
    23    16    22   1
    24    17    18  ar
    25    18    19  ar
    26    18    20   1
    27    20    24   2
    28    20    25   2
    29    26    27   2
    30    27    28   1
    31    28    30   1
    32    28    31   2
    33    29    30   2
    34     1    32   1
    35     2    33   1
    36     3    34   1
    37     5    35   1
    38     6    36   1
    39     8    37   1
    40     9    38   1
    41    10    39   1
    42    11    40   1
    43    11    41   1
    44    12    42   1
    45    17    43   1
    46    19    44   1
    47    21    45   1
    48    22    46   1
    49    26    47   1
    50    27    48   1
    51    29    49   1
    52    30    50   1
@<TRIPOS>SUBSTRUCTURE
     1  OZZ      1

