@<TRIPOS>MOLECULE
3ozt_ligand_084
    50    52
SMALL
GAST_HUCK
****
This file was generated by PARSER (from files_GN.cpp)

@<TRIPOS>ATOM
      1 C1         35.4689   -3.7485  -10.8228 C.3         1 OZZ       0.1189
      2 C2         35.0344   -5.2297  -10.7560 C.3         1 OZZ       0.1403
      3 C3         33.7217   -5.2546  -11.5722 C.3         1 OZZ       0.2027
      4 O4         34.0038   -4.3489  -12.6571 O.3         1 OZZ      -0.3296
      5 C5         34.7300   -3.2346  -12.0958 C.3         1 OZZ       0.1082
      6 C6         35.6270   -2.6225  -13.0708 C.2         1 OZZ      -0.0658
      7 N7         33.1607   -6.4610  -12.1008 N.pl3       1 OZZ      -0.2105
      8 O8         35.1232   -3.0004   -9.6551 O.3         1 OZZ      -0.3846
      9 O9         34.8409   -5.7212   -9.4296 O.3         1 OZZ      -0.3834
     10 C10        36.6326   -3.2811  -13.6652 C.2         1 OZZ      -0.0744
     11 C11        37.7004   -2.5985  -14.3708 C.3         1 OZZ       0.0473
     12 N12        38.9091   -3.3616  -14.4898 N.am        1 OZZ      -0.2765
     13 C13        39.6446   -3.8554  -13.4915 C.2         1 OZZ       0.2411
     14 C14        40.8790   -4.4472  -13.7378 C.ar        1 OZZ       0.2482
     15 C15        41.8396   -3.8238  -14.5764 C.ar        1 OZZ       0.3921
     16 C16        43.0850   -4.4471  -14.8139 C.ar        1 OZZ       0.3797
     17 C17        43.3829   -5.6816  -14.2066 C.ar        1 OZZ       0.1691
     18 C18        42.4473   -6.3363  -13.3688 C.ar        1 OZZ       0.2168
     19 C19        41.2058   -5.6935  -13.1470 C.ar        1 OZZ       0.1162
     20 N20        42.7360   -7.5568  -12.8289 N.2         1 OZZ      -0.1404
     21 O21        41.6351   -2.6055  -15.1503 O.3         1 OZZ      -0.1763
     22 O22        43.9827   -3.8570  -15.6413 O.3         1 OZZ      -0.1825
     23 O23        39.2415   -3.7810  -12.3336 O.2         1 OZZ      -0.3823
     24 O24        43.8705   -8.1677  -13.0367 O.2         1 OZZ      -0.4541
     25 O25        41.9596   -8.1633  -12.1388 O.2         1 OZZ      -0.4541
     26 C26        33.8501   -7.6103  -12.2456 C.2         1 OZZ       0.0592
     27 C27        33.2682   -8.7335  -12.7214 C.2         1 OZZ      -0.0116
     28 C28        31.9441   -8.7079  -13.0592 C.2         1 OZZ       0.0683
     29 C29        31.8691   -6.4322  -12.4852 C.2         1 OZZ       0.0592
     30 C30        31.2441   -7.5384  -12.9462 C.2         1 OZZ      -0.0116
     31 O31        31.4137   -9.7058  -13.5135 O.2         1 OZZ      -0.4519
     32 H1         36.5643   -3.6932  -10.9167 H           1 OZZ       0.0667
     33 H2         35.8252   -5.8120  -11.2493 H           1 OZZ       0.0678
     34 H3         32.9709   -4.8064  -10.9140 H           1 OZZ       0.0999
     35 H4         33.9899   -2.4911  -11.7927 H           1 OZZ       0.0749
     36 H5         35.5378   -1.6371  -13.2252 H           1 OZZ       0.0477
     37 H6         34.1609   -3.1115   -9.5627 H           1 OZZ       0.2102
     38 H7         35.7308   -5.6878   -9.0226 H           1 OZZ       0.2101
     39 H8         36.7184   -4.2653  -13.5298 H           1 OZZ       0.0470
     40 H9         37.9550   -1.6552  -13.8749 H           1 OZZ       0.0643
     41 H10        37.3462   -2.3552  -15.3775 H           1 OZZ       0.0643
     42 H11        39.2534   -3.4885  -15.3935 H           1 OZZ       0.1867
     43 H12        44.2915   -6.1036  -14.3928 H           1 OZZ       0.1086
     44 H13        40.5037   -6.1598  -12.5588 H           1 OZZ       0.1563
     45 H14        41.3459   -2.0055  -14.4272 H           1 OZZ       0.3540
     46 H15        44.8716   -4.1106  -15.3030 H           1 OZZ       0.3497
     47 H16        34.8179   -7.6864  -12.0392 H           1 OZZ       0.1185
     48 H17        33.8013   -9.5654  -12.8068 H           1 OZZ       0.0387
     49 H18        31.3308   -5.5941  -12.3996 H           1 OZZ       0.1185
     50 H19        30.2813   -7.5030  -13.1872 H           1 OZZ       0.0387
@<TRIPOS>BOND
     1     1     2   1
     2     1     5   1
     3     1     8   1
     4     2     3   1
     5     2     9   1
     6     3     4   1
     7     3     7   1
     8     4     5   1
     9     5     6   1
    10     6    10   2
    11     7    26   1
    12     7    29   1
    13    10    11   1
    14    11    12   1
    15    12    13  am
    16    13    14   1
    17    13    23   2
    18    14    15  ar
    19    14    19  ar
    20    15    16  ar
    21    15    21   1
    22    16    17  ar
    23    16    22   1
    24    17    18  ar
    25    18    19  ar
    26    18    20   1
    27    20    24   2
    28    20    25   2
    29    26    27   2
    30    27    28   1
    31    28    30   1
    32    28    31   2
    33    29    30   2
    34     1    32   1
    35     2    33   1
    36     3    34   1
    37     5    35   1
    38     6    36   1
    39     8    37   1
    40     9    38   1
    41    10    39   1
    42    11    40   1
    43    11    41   1
    44    12    42   1
    45    17    43   1
    46    19    44   1
    47    21    45   1
    48    22    46   1
    49    26    47   1
    50    27    48   1
    51    29    49   1
    52    30    50   1
@<TRIPOS>SUBSTRUCTURE
     1  OZZ      1

