@<TRIPOS>MOLECULE
3ozt_ligand_005
    50    52
SMALL
GAST_HUCK
****
This file was generated by PARSER (from files_GN.cpp)

@<TRIPOS>ATOM
      1 C1         36.2413    0.8402  -12.5336 C.3         1 OZZ       0.1189
      2 C2         34.8989    1.4392  -12.0782 C.3         1 OZZ       0.1403
      3 C3         34.3682    2.0614  -13.4044 C.3         1 OZZ       0.2027
      4 O4         34.9563    1.3036  -14.4764 O.3         1 OZZ      -0.3296
      5 C5         35.8687    0.3288  -13.9456 C.3         1 OZZ       0.1082
      6 C6         35.2254   -0.9775  -13.9238 C.2         1 OZZ      -0.0658
      7 N7         32.9720    2.2311  -13.6669 N.pl3       1 OZZ      -0.2105
      8 O8         37.2676    1.8296  -12.6074 O.3         1 OZZ      -0.3846
      9 O9         34.9936    2.3582  -10.9876 O.3         1 OZZ      -0.3834
     10 C10        35.8043   -2.0800  -13.4109 C.2         1 OZZ      -0.0744
     11 C11        35.0805   -3.3227  -13.2012 C.3         1 OZZ       0.0473
     12 N12        35.3191   -3.9234  -11.9261 N.am        1 OZZ      -0.2765
     13 C13        35.1880   -3.3601  -10.7267 C.2         1 OZZ       0.2411
     14 C14        35.4131   -4.1139   -9.5826 C.ar        1 OZZ       0.2482
     15 C15        34.8435   -5.4056   -9.4276 C.ar        1 OZZ       0.3921
     16 C16        35.1267   -6.1725   -8.2795 C.ar        1 OZZ       0.3797
     17 C17        35.9647   -5.6559   -7.2747 C.ar        1 OZZ       0.1691
     18 C18        36.5275   -4.3632   -7.3815 C.ar        1 OZZ       0.2168
     19 C19        36.2285   -3.6057   -8.5411 C.ar        1 OZZ       0.1162
     20 N20        37.3275   -3.8690   -6.3892 N.2         1 OZZ      -0.1404
     21 O21        33.9548   -5.8970  -10.3290 O.3         1 OZZ      -0.1763
     22 O22        34.5510   -7.3864   -8.1027 O.3         1 OZZ      -0.1825
     23 O23        34.9280   -2.1665  -10.6169 O.2         1 OZZ      -0.3823
     24 O24        37.6022   -4.5466   -5.3074 O.2         1 OZZ      -0.4541
     25 O25        37.8306   -2.7776   -6.4450 O.2         1 OZZ      -0.4541
     26 C26        32.0308    1.6076  -12.9471 C.2         1 OZZ       0.0592
     27 C27        30.7511    2.0345  -12.9608 C.2         1 OZZ      -0.0116
     28 C28        30.3952    3.0456  -13.8069 C.2         1 OZZ       0.0683
     29 C29        32.5871    3.0971  -14.6253 C.2         1 OZZ       0.0592
     30 C30        31.3128    3.5413  -14.6929 C.2         1 OZZ      -0.0116
     31 O31        29.2493    3.4708  -13.7828 O.2         1 OZZ      -0.4519
     32 H1         36.5839    0.0541  -11.8592 H           1 OZZ       0.0667
     33 H2         34.2810    0.6081  -11.7381 H           1 OZZ       0.0678
     34 H3         34.8369    3.0584  -13.4487 H           1 OZZ       0.0999
     35 H4         36.7523    0.2834  -14.5936 H           1 OZZ       0.0749
     36 H5         34.2847   -1.0389  -14.2416 H           1 OZZ       0.0477
     37 H6         36.8023    2.6753  -12.7545 H           1 OZZ       0.2102
     38 H7         35.3125    3.2042  -11.3715 H           1 OZZ       0.2101
     39 H8         36.7539   -2.0374  -13.1169 H           1 OZZ       0.0470
     40 H9         35.4138   -4.0261  -13.9635 H           1 OZZ       0.0643
     41 H10        33.9998   -3.1980  -13.3234 H           1 OZZ       0.0643
     42 H11        35.5921   -4.8570  -11.9384 H           1 OZZ       0.1867
     43 H12        36.1393   -6.2332   -6.4495 H           1 OZZ       0.1086
     44 H13        36.6320   -2.6693   -8.6426 H           1 OZZ       0.1563
     45 H14        33.2572   -5.2078  -10.3749 H           1 OZZ       0.3540
     46 H15        34.9002   -7.9450   -8.8281 H           1 OZZ       0.3497
     47 H16        32.2406    0.7846  -12.4299 H           1 OZZ       0.1185
     48 H17        30.0762    1.5739  -12.3976 H           1 OZZ       0.0387
     49 H18        33.2448    3.4625  -15.2841 H           1 OZZ       0.1185
     50 H19        31.0428    4.2100  -15.3749 H           1 OZZ       0.0387
@<TRIPOS>BOND
     1     1     2   1
     2     1     5   1
     3     1     8   1
     4     2     3   1
     5     2     9   1
     6     3     4   1
     7     3     7   1
     8     4     5   1
     9     5     6   1
    10     6    10   2
    11     7    26   1
    12     7    29   1
    13    10    11   1
    14    11    12   1
    15    12    13  am
    16    13    14   1
    17    13    23   2
    18    14    15  ar
    19    14    19  ar
    20    15    16  ar
    21    15    21   1
    22    16    17  ar
    23    16    22   1
    24    17    18  ar
    25    18    19  ar
    26    18    20   1
    27    20    24   2
    28    20    25   2
    29    26    27   2
    30    27    28   1
    31    28    30   1
    32    28    31   2
    33    29    30   2
    34     1    32   1
    35     2    33   1
    36     3    34   1
    37     5    35   1
    38     6    36   1
    39     8    37   1
    40     9    38   1
    41    10    39   1
    42    11    40   1
    43    11    41   1
    44    12    42   1
    45    17    43   1
    46    19    44   1
    47    21    45   1
    48    22    46   1
    49    26    47   1
    50    27    48   1
    51    29    49   1
    52    30    50   1
@<TRIPOS>SUBSTRUCTURE
     1  OZZ      1

