@<TRIPOS>MOLECULE
3ozt_ligand_066
    50    52
SMALL
GAST_HUCK
****
This file was generated by PARSER (from files_GN.cpp)

@<TRIPOS>ATOM
      1 C1         36.8946   -7.2120   -6.6046 C.3         1 OZZ       0.1189
      2 C2         35.7699   -7.2731   -7.6506 C.3         1 OZZ       0.1403
      3 C3         35.1866   -5.8294   -7.7062 C.3         1 OZZ       0.2027
      4 O4         35.9938   -5.0661   -6.7812 O.3         1 OZZ      -0.3296
      5 C5         36.5485   -5.9441   -5.8000 C.3         1 OZZ       0.1082
      6 C6         37.6869   -5.2880   -5.1708 C.2         1 OZZ      -0.0658
      7 N7         35.0748   -5.2316   -9.0009 N.pl3       1 OZZ      -0.2105
      8 O8         36.9818   -8.3660   -5.7704 O.3         1 OZZ      -0.3846
      9 O9         34.7447   -8.2127   -7.3181 O.3         1 OZZ      -0.3834
     10 C10        37.5498   -4.3128   -4.2569 C.2         1 OZZ      -0.0744
     11 C11        38.6727   -3.5624   -3.7191 C.3         1 OZZ       0.0473
     12 N12        39.0729   -2.4920   -4.5844 N.am        1 OZZ      -0.2765
     13 C13        38.4007   -1.3628   -4.8110 C.2         1 OZZ       0.2411
     14 C14        38.9022   -0.3488   -5.6420 C.ar        1 OZZ       0.2482
     15 C15        38.5163    1.0124   -5.4876 C.ar        1 OZZ       0.3921
     16 C16        39.0463    2.0090   -6.3314 C.ar        1 OZZ       0.3797
     17 C17        39.9364    1.6633   -7.3587 C.ar        1 OZZ       0.1691
     18 C18        40.3273    0.3217   -7.5714 C.ar        1 OZZ       0.2168
     19 C19        39.8076   -0.6605   -6.6907 C.ar        1 OZZ       0.1162
     20 N20        41.1614   -0.0054   -8.6023 N.2         1 OZZ      -0.1404
     21 O21        37.6539    1.4230   -4.5195 O.3         1 OZZ      -0.1763
     22 O22        38.7102    3.3125   -6.1704 O.3         1 OZZ      -0.1825
     23 O23        37.3172   -1.2074   -4.2632 O.2         1 OZZ      -0.3823
     24 O24        41.6278    0.8860   -9.4348 O.2         1 OZZ      -0.4541
     25 O25        41.5079   -1.1367   -8.8257 O.2         1 OZZ      -0.4541
     26 C26        35.3116   -3.9190   -9.1839 C.2         1 OZZ       0.0592
     27 C27        35.2390   -3.3553  -10.4066 C.2         1 OZZ      -0.0116
     28 C28        34.8891   -4.1317  -11.4761 C.2         1 OZZ       0.0683
     29 C29        34.5887   -5.9471  -10.0320 C.2         1 OZZ       0.0592
     30 C30        34.5243   -5.4345  -11.2765 C.2         1 OZZ      -0.0116
     31 O31        34.8367   -3.6453  -12.5968 O.2         1 OZZ      -0.4519
     32 H1         37.8508   -7.0866   -7.1225 H           1 OZZ       0.0667
     33 H2         36.1880   -7.5707   -8.6119 H           1 OZZ       0.0678
     34 H3         34.1766   -5.8495   -7.2882 H           1 OZZ       0.0999
     35 H4         35.7864   -6.1844   -5.0484 H           1 OZZ       0.0749
     36 H5         38.6040   -5.5429   -5.4577 H           1 OZZ       0.0477
     37 H6         37.2440   -9.0951   -6.3721 H           1 OZZ       0.2102
     38 H7         35.1787   -9.0918   -7.3033 H           1 OZZ       0.2101
     39 H8         36.6421   -4.0894   -3.9207 H           1 OZZ       0.0470
     40 H9         39.5277   -4.2262   -3.5699 H           1 OZZ       0.0643
     41 H10        38.4113   -3.1569   -2.7378 H           1 OZZ       0.0643
     42 H11        39.9460   -2.5817   -4.9984 H           1 OZZ       0.1867
     43 H12        40.2904    2.4088   -7.9631 H           1 OZZ       0.1086
     44 H13        40.0744   -1.6362   -6.8450 H           1 OZZ       0.1563
     45 H14        38.2032    1.4879   -3.7109 H           1 OZZ       0.3540
     46 H15        38.9753    3.5306   -5.2515 H           1 OZZ       0.3497
     47 H16        35.4962   -3.3152   -8.4141 H           1 OZZ       0.1185
     48 H17        35.3838   -2.3761  -10.5163 H           1 OZZ       0.0387
     49 H18        34.2815   -6.8853   -9.9039 H           1 OZZ       0.1185
     50 H19        34.1857   -5.9898  -12.0297 H           1 OZZ       0.0387
@<TRIPOS>BOND
     1     1     2   1
     2     1     5   1
     3     1     8   1
     4     2     3   1
     5     2     9   1
     6     3     4   1
     7     3     7   1
     8     4     5   1
     9     5     6   1
    10     6    10   2
    11     7    26   1
    12     7    29   1
    13    10    11   1
    14    11    12   1
    15    12    13  am
    16    13    14   1
    17    13    23   2
    18    14    15  ar
    19    14    19  ar
    20    15    16  ar
    21    15    21   1
    22    16    17  ar
    23    16    22   1
    24    17    18  ar
    25    18    19  ar
    26    18    20   1
    27    20    24   2
    28    20    25   2
    29    26    27   2
    30    27    28   1
    31    28    30   1
    32    28    31   2
    33    29    30   2
    34     1    32   1
    35     2    33   1
    36     3    34   1
    37     5    35   1
    38     6    36   1
    39     8    37   1
    40     9    38   1
    41    10    39   1
    42    11    40   1
    43    11    41   1
    44    12    42   1
    45    17    43   1
    46    19    44   1
    47    21    45   1
    48    22    46   1
    49    26    47   1
    50    27    48   1
    51    29    49   1
    52    30    50   1
@<TRIPOS>SUBSTRUCTURE
     1  OZZ      1

