@<TRIPOS>MOLECULE
3ozt_ligand_053
    50    52
SMALL
GAST_HUCK
****
This file was generated by PARSER (from files_GN.cpp)

@<TRIPOS>ATOM
      1 C1         40.2003   -2.3464  -11.5779 C.3         1 OZZ       0.1189
      2 C2         41.6379   -2.7230  -11.1781 C.3         1 OZZ       0.1403
      3 C3         41.4312   -3.6557   -9.9473 C.3         1 OZZ       0.2027
      4 O4         40.0181   -3.7522   -9.6996 O.3         1 OZZ      -0.3296
      5 C5         39.4062   -2.6078  -10.2857 C.3         1 OZZ       0.1082
      6 C6         37.9746   -2.8610  -10.4831 C.2         1 OZZ      -0.0658
      7 N7         41.9646   -4.9694  -10.1105 N.pl3       1 OZZ      -0.2105
      8 O8         40.0507   -0.9947  -12.0059 O.3         1 OZZ      -0.3846
      9 O9         42.4348   -1.5774  -10.8612 O.3         1 OZZ      -0.3834
     10 C10        37.1247   -2.9931   -9.4692 C.2         1 OZZ      -0.0744
     11 C11        35.6712   -3.0355   -9.6609 C.3         1 OZZ       0.0473
     12 N12        35.0989   -2.0458  -10.5239 N.am        1 OZZ      -0.2765
     13 C13        35.6129   -0.9302  -11.0270 C.2         1 OZZ       0.2411
     14 C14        34.9765   -0.1434  -11.9635 C.ar        1 OZZ       0.2482
     15 C15        34.3466   -0.7022  -13.1130 C.ar        1 OZZ       0.3921
     16 C16        33.6503    0.1134  -14.0275 C.ar        1 OZZ       0.3797
     17 C17        33.5901    1.5020  -13.8235 C.ar        1 OZZ       0.1691
     18 C18        34.2273    2.1149  -12.7198 C.ar        1 OZZ       0.2168
     19 C19        34.9261    1.2710  -11.8164 C.ar        1 OZZ       0.1162
     20 N20        34.1649    3.4639  -12.5263 N.2         1 OZZ      -0.1404
     21 O21        34.4446   -2.0316  -13.3836 O.3         1 OZZ      -0.1763
     22 O22        33.0326   -0.4678  -15.0932 O.3         1 OZZ      -0.1825
     23 O23        36.7842   -0.6057  -10.7217 O.2         1 OZZ      -0.3823
     24 O24        33.4794    4.2563  -13.3111 O.2         1 OZZ      -0.4541
     25 O25        34.7128    4.0181  -11.6095 O.2         1 OZZ      -0.4541
     26 C26        41.5886   -5.7121  -11.1629 C.2         1 OZZ       0.0592
     27 C27        42.0276   -6.9913  -11.3103 C.2         1 OZZ      -0.0116
     28 C28        42.8533   -7.5097  -10.3594 C.2         1 OZZ       0.0683
     29 C29        42.7817   -5.4858   -9.1836 C.2         1 OZZ       0.0592
     30 C30        43.2371   -6.7598   -9.2872 C.2         1 OZZ      -0.0116
     31 O31        43.2280   -8.6740  -10.4528 O.2         1 OZZ      -0.4519
     32 H1         39.8620   -3.0114  -12.3795 H           1 OZZ       0.0667
     33 H2         42.1327   -3.2375  -12.0067 H           1 OZZ       0.0678
     34 H3         41.8494   -3.1468   -9.0685 H           1 OZZ       0.0999
     35 H4         39.5276   -1.7515   -9.6119 H           1 OZZ       0.0749
     36 H5         37.6145   -2.8105  -11.4134 H           1 OZZ       0.0477
     37 H6         40.4577   -0.9614  -12.8968 H           1 OZZ       0.2102
     38 H7         41.9786   -1.1281  -10.1187 H           1 OZZ       0.2101
     39 H8         37.4662   -3.0269   -8.5302 H           1 OZZ       0.0470
     40 H9         35.1636   -2.9858   -8.6916 H           1 OZZ       0.0643
     41 H10        35.4250   -4.0143  -10.0853 H           1 OZZ       0.0643
     42 H11        34.1674   -2.2007  -10.7655 H           1 OZZ       0.1867
     43 H12        33.0786    2.0717  -14.5056 H           1 OZZ       0.1086
     44 H13        35.3803    1.6962  -11.0056 H           1 OZZ       0.1563
     45 H14        34.6723   -2.0776  -14.3370 H           1 OZZ       0.3540
     46 H15        32.4374    0.2073  -15.4648 H           1 OZZ       0.3497
     47 H16        40.9619   -5.3608  -11.8485 H           1 OZZ       0.1185
     48 H17        41.7261   -7.5303  -12.0870 H           1 OZZ       0.0387
     49 H18        43.0731   -4.9564   -8.3954 H           1 OZZ       0.1185
     50 H19        43.8329   -7.1299   -8.5861 H           1 OZZ       0.0387
@<TRIPOS>BOND
     1     1     2   1
     2     1     5   1
     3     1     8   1
     4     2     3   1
     5     2     9   1
     6     3     4   1
     7     3     7   1
     8     4     5   1
     9     5     6   1
    10     6    10   2
    11     7    26   1
    12     7    29   1
    13    10    11   1
    14    11    12   1
    15    12    13  am
    16    13    14   1
    17    13    23   2
    18    14    15  ar
    19    14    19  ar
    20    15    16  ar
    21    15    21   1
    22    16    17  ar
    23    16    22   1
    24    17    18  ar
    25    18    19  ar
    26    18    20   1
    27    20    24   2
    28    20    25   2
    29    26    27   2
    30    27    28   1
    31    28    30   1
    32    28    31   2
    33    29    30   2
    34     1    32   1
    35     2    33   1
    36     3    34   1
    37     5    35   1
    38     6    36   1
    39     8    37   1
    40     9    38   1
    41    10    39   1
    42    11    40   1
    43    11    41   1
    44    12    42   1
    45    17    43   1
    46    19    44   1
    47    21    45   1
    48    22    46   1
    49    26    47   1
    50    27    48   1
    51    29    49   1
    52    30    50   1
@<TRIPOS>SUBSTRUCTURE
     1  OZZ      1

