@<TRIPOS>MOLECULE
3ozt_ligand_086
    50    52
SMALL
GAST_HUCK
****
This file was generated by PARSER (from files_GN.cpp)

@<TRIPOS>ATOM
      1 C1         35.8746   -1.6452  -13.7224 C.3         1 OZZ       0.1189
      2 C2         34.8473   -0.4977  -13.8717 C.3         1 OZZ       0.1403
      3 C3         34.7419    0.1026  -12.4490 C.3         1 OZZ       0.2027
      4 O4         35.9539   -0.3029  -11.7802 O.3         1 OZZ      -0.3296
      5 C5         36.2228   -1.6494  -12.2111 C.3         1 OZZ       0.1082
      6 C6         37.5921   -2.0410  -11.9180 C.2         1 OZZ      -0.0658
      7 N7         34.5250    1.5087  -12.4610 N.pl3       1 OZZ      -0.2105
      8 O8         35.3880   -2.9226  -14.1391 O.3         1 OZZ      -0.3846
      9 O9         33.5750   -0.9316  -14.3584 O.3         1 OZZ      -0.3834
     10 C10        38.0938   -2.0880  -10.6676 C.2         1 OZZ      -0.0744
     11 C11        39.4588   -2.4626  -10.3209 C.3         1 OZZ       0.0473
     12 N12        40.3789   -2.6270  -11.4161 N.am        1 OZZ      -0.2765
     13 C13        40.8052   -1.6779  -12.2508 C.2         1 OZZ       0.2411
     14 C14        41.5286   -1.9855  -13.4145 C.ar        1 OZZ       0.2482
     15 C15        42.4879   -1.0905  -13.9654 C.ar        1 OZZ       0.3921
     16 C16        43.1986   -1.4224  -15.1388 C.ar        1 OZZ       0.3797
     17 C17        42.9479   -2.6401  -15.7899 C.ar        1 OZZ       0.1691
     18 C18        41.9794   -3.5529  -15.3072 C.ar        1 OZZ       0.2168
     19 C19        41.2865   -3.1958  -14.1175 C.ar        1 OZZ       0.1162
     20 N20        41.7248   -4.7167  -15.9738 N.2         1 OZZ      -0.1404
     21 O21        42.8101    0.0902  -13.3736 O.3         1 OZZ      -0.1763
     22 O22        44.1394   -0.5871  -15.6527 O.3         1 OZZ      -0.1825
     23 O23        40.5085   -0.5149  -12.0147 O.2         1 OZZ      -0.3823
     24 O24        42.3505   -5.0488  -17.0714 O.2         1 OZZ      -0.4541
     25 O25        40.9112   -5.5206  -15.5946 O.2         1 OZZ      -0.4541
     26 C26        33.2731    1.9881  -12.5345 C.2         1 OZZ       0.0592
     27 C27        33.0360    3.3100  -12.6674 C.2         1 OZZ      -0.0116
     28 C28        34.0971    4.1665  -12.7599 C.2         1 OZZ       0.0683
     29 C29        35.5637    2.3547  -12.5524 C.2         1 OZZ       0.0592
     30 C30        35.3718    3.6818  -12.7044 C.2         1 OZZ      -0.0116
     31 O31        33.9070    5.3649  -12.9197 O.2         1 OZZ      -0.4519
     32 H1         36.7598   -1.4041  -14.3320 H           1 OZZ       0.0667
     33 H2         35.2431    0.2455  -14.5746 H           1 OZZ       0.0678
     34 H3         33.9267   -0.4021  -11.9133 H           1 OZZ       0.0999
     35 H4         35.5493   -2.3392  -11.6830 H           1 OZZ       0.0749
     36 H5         38.1809   -2.3105  -12.6702 H           1 OZZ       0.0477
     37 H6         35.1581   -2.7799  -15.0772 H           1 OZZ       0.2102
     38 H7         33.0806   -0.1103  -14.5788 H           1 OZZ       0.2101
     39 H8         37.4887   -1.8755   -9.9067 H           1 OZZ       0.0470
     40 H9         39.4105   -3.4200   -9.7968 H           1 OZZ       0.0643
     41 H10        39.8778   -1.7359   -9.6206 H           1 OZZ       0.0643
     42 H11        40.6975   -3.5309  -11.5795 H           1 OZZ       0.1867
     43 H12        43.4763   -2.8560  -16.6402 H           1 OZZ       0.1086
     44 H13        40.5726   -3.8392  -13.7678 H           1 OZZ       0.1563
     45 H14        41.9787    0.6160  -13.3801 H           1 OZZ       0.3540
     46 H15        43.6254    0.0998  -16.1349 H           1 OZZ       0.3497
     47 H16        32.4850    1.3785  -12.5037 H           1 OZZ       0.1185
     48 H17        32.0995    3.6519  -12.7036 H           1 OZZ       0.0387
     49 H18        36.5031    2.0229  -12.5378 H           1 OZZ       0.1185
     50 H19        36.1514    4.2903  -12.8044 H           1 OZZ       0.0387
@<TRIPOS>BOND
     1     1     2   1
     2     1     5   1
     3     1     8   1
     4     2     3   1
     5     2     9   1
     6     3     4   1
     7     3     7   1
     8     4     5   1
     9     5     6   1
    10     6    10   2
    11     7    26   1
    12     7    29   1
    13    10    11   1
    14    11    12   1
    15    12    13  am
    16    13    14   1
    17    13    23   2
    18    14    15  ar
    19    14    19  ar
    20    15    16  ar
    21    15    21   1
    22    16    17  ar
    23    16    22   1
    24    17    18  ar
    25    18    19  ar
    26    18    20   1
    27    20    24   2
    28    20    25   2
    29    26    27   2
    30    27    28   1
    31    28    30   1
    32    28    31   2
    33    29    30   2
    34     1    32   1
    35     2    33   1
    36     3    34   1
    37     5    35   1
    38     6    36   1
    39     8    37   1
    40     9    38   1
    41    10    39   1
    42    11    40   1
    43    11    41   1
    44    12    42   1
    45    17    43   1
    46    19    44   1
    47    21    45   1
    48    22    46   1
    49    26    47   1
    50    27    48   1
    51    29    49   1
    52    30    50   1
@<TRIPOS>SUBSTRUCTURE
     1  OZZ      1

