@<TRIPOS>MOLECULE
3ozt_ligand_050
    50    52
SMALL
GAST_HUCK
****
This file was generated by PARSER (from files_GN.cpp)

@<TRIPOS>ATOM
      1 C1         36.9562   -1.4690  -13.2210 C.3         1 OZZ       0.1189
      2 C2         36.7932    0.0459  -13.4393 C.3         1 OZZ       0.1403
      3 C3         35.2580    0.2253  -13.2959 C.3         1 OZZ       0.2027
      4 O4         34.9003   -0.6640  -12.2376 O.3         1 OZZ      -0.3296
      5 C5         35.7442   -1.8228  -12.3134 C.3         1 OZZ       0.1082
      6 C6         36.1641   -2.2855  -10.9915 C.2         1 OZZ      -0.0658
      7 N7         34.7261    1.5226  -13.0095 N.pl3       1 OZZ      -0.2105
      8 O8         36.9162   -2.1924  -14.4571 O.3         1 OZZ      -0.3846
      9 O9         37.3121    0.5062  -14.6879 O.3         1 OZZ      -0.3834
     10 C10        36.1665   -1.5308   -9.8776 C.2         1 OZZ      -0.0744
     11 C11        36.7021   -1.9970   -8.6087 C.3         1 OZZ       0.0473
     12 N12        36.1690   -3.2800   -8.2659 N.am        1 OZZ      -0.2765
     13 C13        36.8192   -4.2714   -7.6628 C.2         1 OZZ       0.2411
     14 C14        36.2118   -5.5204   -7.4549 C.ar        1 OZZ       0.2482
     15 C15        36.4803   -6.3143   -6.3116 C.ar        1 OZZ       0.3921
     16 C16        35.8359   -7.5548   -6.1320 C.ar        1 OZZ       0.3797
     17 C17        34.9532   -8.0412   -7.1052 C.ar        1 OZZ       0.1691
     18 C18        34.6655   -7.2926   -8.2750 C.ar        1 OZZ       0.2168
     19 C19        35.2998   -6.0343   -8.4161 C.ar        1 OZZ       0.1162
     20 N20        33.8093   -7.7782   -9.2203 N.2         1 OZZ      -0.1404
     21 O21        37.3427   -5.9014   -5.3417 O.3         1 OZZ      -0.1763
     22 O22        36.0391   -8.3130   -5.0258 O.3         1 OZZ      -0.1825
     23 O23        37.9756   -4.1058   -7.2972 O.2         1 OZZ      -0.3823
     24 O24        33.1992   -8.9294   -9.0889 O.2         1 OZZ      -0.4541
     25 O25        33.5938   -7.2094  -10.2538 O.2         1 OZZ      -0.4541
     26 C26        35.0165    2.1467  -11.8528 C.2         1 OZZ       0.0592
     27 C27        34.4950    3.3530  -11.5465 C.2         1 OZZ      -0.0116
     28 C28        33.5999    3.9181  -12.4028 C.2         1 OZZ       0.0683
     29 C29        33.7720    2.0488  -13.8021 C.2         1 OZZ       0.0592
     30 C30        33.2028    3.2421  -13.5221 C.2         1 OZZ      -0.0116
     31 O31        33.1029    4.9982  -12.1251 O.2         1 OZZ      -0.4519
     32 H1         37.9197   -1.6827  -12.7489 H           1 OZZ       0.0667
     33 H2         37.3466    0.5570  -12.6538 H           1 OZZ       0.0678
     34 H3         34.8056   -0.1822  -14.2093 H           1 OZZ       0.0999
     35 H4         35.1498   -2.6199  -12.7723 H           1 OZZ       0.0749
     36 H5         36.5273   -3.2104  -10.9393 H           1 OZZ       0.0477
     37 H6         36.2439   -1.7482  -15.0180 H           1 OZZ       0.2102
     38 H7         36.8499   -0.0176  -15.3708 H           1 OZZ       0.2101
     39 H8         35.8335   -0.5978   -9.9172 H           1 OZZ       0.0470
     40 H9         36.4325   -1.2933   -7.8190 H           1 OZZ       0.0643
     41 H10        37.7929   -2.0049   -8.6871 H           1 OZZ       0.0643
     42 H11        35.2392   -3.4342   -8.5029 H           1 OZZ       0.1867
     43 H12        34.5097   -8.9466   -6.9521 H           1 OZZ       0.1086
     44 H13        35.1114   -5.4866   -9.2622 H           1 OZZ       0.1563
     45 H14        36.7717   -5.5317   -4.6376 H           1 OZZ       0.3540
     46 H15        35.9082   -7.7024   -4.2732 H           1 OZZ       0.3497
     47 H16        35.6018    1.7211  -11.1702 H           1 OZZ       0.1185
     48 H17        34.7313    3.7981  -10.6945 H           1 OZZ       0.0387
     49 H18        33.4225    1.5452  -14.5850 H           1 OZZ       0.1185
     50 H19        32.4717    3.5971  -14.0956 H           1 OZZ       0.0387
@<TRIPOS>BOND
     1     1     2   1
     2     1     5   1
     3     1     8   1
     4     2     3   1
     5     2     9   1
     6     3     4   1
     7     3     7   1
     8     4     5   1
     9     5     6   1
    10     6    10   2
    11     7    26   1
    12     7    29   1
    13    10    11   1
    14    11    12   1
    15    12    13  am
    16    13    14   1
    17    13    23   2
    18    14    15  ar
    19    14    19  ar
    20    15    16  ar
    21    15    21   1
    22    16    17  ar
    23    16    22   1
    24    17    18  ar
    25    18    19  ar
    26    18    20   1
    27    20    24   2
    28    20    25   2
    29    26    27   2
    30    27    28   1
    31    28    30   1
    32    28    31   2
    33    29    30   2
    34     1    32   1
    35     2    33   1
    36     3    34   1
    37     5    35   1
    38     6    36   1
    39     8    37   1
    40     9    38   1
    41    10    39   1
    42    11    40   1
    43    11    41   1
    44    12    42   1
    45    17    43   1
    46    19    44   1
    47    21    45   1
    48    22    46   1
    49    26    47   1
    50    27    48   1
    51    29    49   1
    52    30    50   1
@<TRIPOS>SUBSTRUCTURE
     1  OZZ      1

