@<TRIPOS>MOLECULE
3ozt_ligand_024
    50    52
SMALL
GAST_HUCK
****
This file was generated by PARSER (from files_GN.cpp)

@<TRIPOS>ATOM
      1 C1         39.4328   -8.6219   -1.5384 C.3         1 OZZ       0.1189
      2 C2         40.3087   -7.6360   -2.3340 C.3         1 OZZ       0.1403
      3 C3         41.3470   -8.5790   -2.9923 C.3         1 OZZ       0.2027
      4 O4         40.7312   -9.8746   -3.1243 O.3         1 OZZ      -0.3296
      5 C5         39.4871   -9.9094   -2.4057 C.3         1 OZZ       0.1082
      6 C6         38.4250  -10.1767   -3.3798 C.2         1 OZZ      -0.0658
      7 N7         41.8483   -8.1096   -4.2424 N.pl3       1 OZZ      -0.2105
      8 O8         39.9803   -8.8692   -0.2419 O.3         1 OZZ      -0.3846
      9 O9         40.9050   -6.6162   -1.5321 O.3         1 OZZ      -0.3834
     10 C10        37.7091   -9.2482   -4.0322 C.2         1 OZZ      -0.0744
     11 C11        36.7137   -9.5428   -5.0523 C.3         1 OZZ       0.0473
     12 N12        36.4728   -8.4569   -5.9598 N.am        1 OZZ      -0.2765
     13 C13        36.0974   -7.2214   -5.6532 C.2         1 OZZ       0.2411
     14 C14        35.9805   -6.2641   -6.6479 C.ar        1 OZZ       0.2482
     15 C15        35.2381   -6.5218   -7.8222 C.ar        1 OZZ       0.3921
     16 C16        35.0581   -5.5067   -8.7833 C.ar        1 OZZ       0.3797
     17 C17        35.6315   -4.2371   -8.5845 C.ar        1 OZZ       0.1691
     18 C18        36.3991   -3.9505   -7.4323 C.ar        1 OZZ       0.2168
     19 C19        36.5604   -4.9853   -6.4738 C.ar        1 OZZ       0.1162
     20 N20        36.9469   -2.7148   -7.2443 N.2         1 OZZ      -0.1404
     21 O21        34.5785   -7.6940   -7.9856 O.3         1 OZZ      -0.1763
     22 O22        34.2933   -5.7482   -9.8814 O.3         1 OZZ      -0.1825
     23 O23        35.8972   -6.8808   -4.4935 O.2         1 OZZ      -0.3823
     24 O24        36.7882   -1.7402   -8.1029 O.2         1 OZZ      -0.4541
     25 O25        37.6077   -2.4331   -6.2781 O.2         1 OZZ      -0.4541
     26 C26        43.0972   -7.6247   -4.3390 C.2         1 OZZ       0.0592
     27 C27        43.6132   -7.2531   -5.5287 C.2         1 OZZ      -0.0116
     28 C28        42.8430   -7.3710   -6.6531 C.2         1 OZZ       0.0683
     29 C29        41.0835   -8.1829   -5.3429 C.2         1 OZZ       0.0592
     30 C30        41.5621   -7.8341   -6.5549 C.2         1 OZZ      -0.0116
     31 O31        43.2980   -7.0514   -7.7423 O.2         1 OZZ      -0.4519
     32 H1         38.4135   -8.2489   -1.4025 H           1 OZZ       0.0667
     33 H2         39.7043   -7.1354   -3.0919 H           1 OZZ       0.0678
     34 H3         42.1522   -8.7312   -2.2625 H           1 OZZ       0.0999
     35 H4         39.5137  -10.7738   -1.7324 H           1 OZZ       0.0749
     36 H5         38.3003  -11.1293   -3.6439 H           1 OZZ       0.0477
     37 H6         39.6669   -8.1269    0.3156 H           1 OZZ       0.2102
     38 H7         41.4477   -7.0879   -0.8599 H           1 OZZ       0.2101
     39 H8         37.8631   -8.2996   -3.8062 H           1 OZZ       0.0470
     40 H9         35.7774   -9.8330   -4.5722 H           1 OZZ       0.0643
     41 H10        37.0493  -10.3876   -5.6615 H           1 OZZ       0.0643
     42 H11        36.6228   -8.6491   -6.8990 H           1 OZZ       0.1867
     43 H12        35.4716   -3.5201   -9.2922 H           1 OZZ       0.1086
     44 H13        37.1124   -4.8007   -5.6301 H           1 OZZ       0.1563
     45 H14        34.9841   -8.1122   -8.7678 H           1 OZZ       0.3540
     46 H15        33.6129   -5.0378   -9.8825 H           1 OZZ       0.3497
     47 H16        43.6716   -7.5219   -3.5299 H           1 OZZ       0.1185
     48 H17        44.5409   -6.8968   -5.5814 H           1 OZZ       0.0387
     49 H18        40.1474   -8.5133   -5.2949 H           1 OZZ       0.1185
     50 H19        40.9876   -7.9173   -7.3622 H           1 OZZ       0.0387
@<TRIPOS>BOND
     1     1     2   1
     2     1     5   1
     3     1     8   1
     4     2     3   1
     5     2     9   1
     6     3     4   1
     7     3     7   1
     8     4     5   1
     9     5     6   1
    10     6    10   2
    11     7    26   1
    12     7    29   1
    13    10    11   1
    14    11    12   1
    15    12    13  am
    16    13    14   1
    17    13    23   2
    18    14    15  ar
    19    14    19  ar
    20    15    16  ar
    21    15    21   1
    22    16    17  ar
    23    16    22   1
    24    17    18  ar
    25    18    19  ar
    26    18    20   1
    27    20    24   2
    28    20    25   2
    29    26    27   2
    30    27    28   1
    31    28    30   1
    32    28    31   2
    33    29    30   2
    34     1    32   1
    35     2    33   1
    36     3    34   1
    37     5    35   1
    38     6    36   1
    39     8    37   1
    40     9    38   1
    41    10    39   1
    42    11    40   1
    43    11    41   1
    44    12    42   1
    45    17    43   1
    46    19    44   1
    47    21    45   1
    48    22    46   1
    49    26    47   1
    50    27    48   1
    51    29    49   1
    52    30    50   1
@<TRIPOS>SUBSTRUCTURE
     1  OZZ      1

