@<TRIPOS>MOLECULE
3ozt_ligand_091
    50    52
SMALL
GAST_HUCK
****
This file was generated by PARSER (from files_GN.cpp)

@<TRIPOS>ATOM
      1 C1         38.2898   -1.9758   -8.0106 C.3         1 OZZ       0.1189
      2 C2         38.6987   -3.3127   -7.3673 C.3         1 OZZ       0.1403
      3 C3         37.3943   -3.8234   -6.7042 C.3         1 OZZ       0.2027
      4 O4         36.3638   -3.3528   -7.5926 O.3         1 OZZ      -0.3296
      5 C5         36.7522   -2.0980   -8.1595 C.3         1 OZZ       0.1082
      6 C6         36.2530   -2.0006   -9.5302 C.2         1 OZZ      -0.0658
      7 N7         37.3885   -5.2319   -6.4463 N.pl3       1 OZZ      -0.2105
      8 O8         38.6517   -0.8584   -7.1870 O.3         1 OZZ      -0.3846
      9 O9         39.7761   -3.1627   -6.4411 O.3         1 OZZ      -0.3834
     10 C10        36.4940   -2.9280  -10.4672 C.2         1 OZZ      -0.0744
     11 C11        35.9033   -2.9233  -11.8042 C.3         1 OZZ       0.0473
     12 N12        34.7721   -3.7736  -12.0446 N.am        1 OZZ      -0.2765
     13 C13        34.2259   -4.7108  -11.2789 C.2         1 OZZ       0.2411
     14 C14        33.1267   -5.4081  -11.7352 C.ar        1 OZZ       0.2482
     15 C15        31.8204   -4.8757  -11.6224 C.ar        1 OZZ       0.3921
     16 C16        30.7060   -5.6557  -11.9941 C.ar        1 OZZ       0.3797
     17 C17        30.8984   -6.9419  -12.5343 C.ar        1 OZZ       0.1691
     18 C18        32.1992   -7.4933  -12.6855 C.ar        1 OZZ       0.2168
     19 C19        33.2974   -6.7083  -12.2619 C.ar        1 OZZ       0.1162
     20 N20        32.3817   -8.7434  -13.2045 N.2         1 OZZ      -0.1404
     21 O21        31.6500   -3.6191  -11.1258 O.3         1 OZZ      -0.1763
     22 O22        29.4498   -5.1682  -11.7962 O.3         1 OZZ      -0.1825
     23 O23        34.6631   -5.0206  -10.1805 O.2         1 OZZ      -0.3823
     24 O24        31.3862   -9.4867  -13.5959 O.2         1 OZZ      -0.4541
     25 O25        33.4746   -9.2265  -13.3662 O.2         1 OZZ      -0.4541
     26 C26        38.2525   -5.7383   -5.5474 C.2         1 OZZ       0.0592
     27 C27        38.2892   -7.0558   -5.2697 C.2         1 OZZ      -0.0116
     28 C28        37.4114   -7.8935   -5.8981 C.2         1 OZZ       0.0683
     29 C29        36.5199   -6.0619   -7.0520 C.2         1 OZZ       0.0592
     30 C30        36.5111   -7.3845   -6.7931 C.2         1 OZZ      -0.0116
     31 O31        37.4195   -9.0900   -5.6416 O.2         1 OZZ      -0.4519
     32 H1         38.7949   -1.8450   -8.9714 H           1 OZZ       0.0667
     33 H2         39.0091   -4.0113   -8.1482 H           1 OZZ       0.0678
     34 H3         37.2437   -3.2982   -5.7512 H           1 OZZ       0.0999
     35 H4         36.2701   -1.3127   -7.5614 H           1 OZZ       0.0749
     36 H5         35.6540   -1.2394   -9.7553 H           1 OZZ       0.0477
     37 H6         38.3425   -1.0854   -6.2864 H           1 OZZ       0.2102
     38 H7         40.5260   -2.8168   -6.9684 H           1 OZZ       0.2101
     39 H8         37.0844   -3.6963  -10.2401 H           1 OZZ       0.0470
     40 H9         36.6798   -3.2101  -12.5208 H           1 OZZ       0.0643
     41 H10        35.5992   -1.9118  -12.0737 H           1 OZZ       0.0643
     42 H11        34.3588   -3.6591  -12.9130 H           1 OZZ       0.1867
     43 H12        30.0769   -7.4839  -12.8065 H           1 OZZ       0.1086
     44 H13        34.2469   -7.0883  -12.3343 H           1 OZZ       0.1563
     45 H14        30.7418   -3.3222  -11.3429 H           1 OZZ       0.3540
     46 H15        28.8704   -5.6075  -12.4523 H           1 OZZ       0.3497
     47 H16        38.8827   -5.1475   -5.0544 H           1 OZZ       0.1185
     48 H17        38.9428   -7.4116   -4.6070 H           1 OZZ       0.0387
     49 H18        35.8561   -5.7235   -7.7119 H           1 OZZ       0.1185
     50 H19        35.8574   -7.9830   -7.2487 H           1 OZZ       0.0387
@<TRIPOS>BOND
     1     1     2   1
     2     1     5   1
     3     1     8   1
     4     2     3   1
     5     2     9   1
     6     3     4   1
     7     3     7   1
     8     4     5   1
     9     5     6   1
    10     6    10   2
    11     7    26   1
    12     7    29   1
    13    10    11   1
    14    11    12   1
    15    12    13  am
    16    13    14   1
    17    13    23   2
    18    14    15  ar
    19    14    19  ar
    20    15    16  ar
    21    15    21   1
    22    16    17  ar
    23    16    22   1
    24    17    18  ar
    25    18    19  ar
    26    18    20   1
    27    20    24   2
    28    20    25   2
    29    26    27   2
    30    27    28   1
    31    28    30   1
    32    28    31   2
    33    29    30   2
    34     1    32   1
    35     2    33   1
    36     3    34   1
    37     5    35   1
    38     6    36   1
    39     8    37   1
    40     9    38   1
    41    10    39   1
    42    11    40   1
    43    11    41   1
    44    12    42   1
    45    17    43   1
    46    19    44   1
    47    21    45   1
    48    22    46   1
    49    26    47   1
    50    27    48   1
    51    29    49   1
    52    30    50   1
@<TRIPOS>SUBSTRUCTURE
     1  OZZ      1

