@<TRIPOS>MOLECULE
3ozt_ligand_046
    50    52
SMALL
GAST_HUCK
****
This file was generated by PARSER (from files_GN.cpp)

@<TRIPOS>ATOM
      1 C1         38.6272    1.1905   -5.3771 C.3         1 OZZ       0.1189
      2 C2         39.9189    1.6589   -4.6824 C.3         1 OZZ       0.1403
      3 C3         40.7365    0.3451   -4.4870 C.3         1 OZZ       0.2027
      4 O4         39.9180   -0.7483   -4.9349 O.3         1 OZZ      -0.3296
      5 C5         38.5571   -0.2960   -4.9727 C.3         1 OZZ       0.1082
      6 C6         37.7585   -1.1418   -5.8603 C.2         1 OZZ      -0.0658
      7 N7         41.9862    0.3277   -5.1780 N.pl3       1 OZZ      -0.2105
      8 O8         37.4692    1.9199   -4.9684 O.3         1 OZZ      -0.3846
      9 O9         39.6652    2.3114   -3.4348 O.3         1 OZZ      -0.3834
     10 C10        38.1669   -1.5416   -7.0753 C.2         1 OZZ      -0.0744
     11 C11        37.4040   -2.4686   -7.8983 C.3         1 OZZ       0.0473
     12 N12        37.1483   -3.8185   -7.4593 N.am        1 OZZ      -0.2765
     13 C13        37.5694   -4.5126   -6.3978 C.2         1 OZZ       0.2411
     14 C14        37.1647   -5.8381   -6.1319 C.ar        1 OZZ       0.2482
     15 C15        36.0402   -6.4516   -6.7543 C.ar        1 OZZ       0.3921
     16 C16        35.6962   -7.7910   -6.4693 C.ar        1 OZZ       0.3797
     17 C17        36.4400   -8.5331   -5.5383 C.ar        1 OZZ       0.1691
     18 C18        37.5403   -7.9622   -4.8646 C.ar        1 OZZ       0.2168
     19 C19        37.8813   -6.6233   -5.1816 C.ar        1 OZZ       0.1162
     20 N20        38.2381   -8.6835   -3.9420 N.2         1 OZZ      -0.1404
     21 O21        35.2094   -5.7767   -7.5893 O.3         1 OZZ      -0.1763
     22 O22        34.6230   -8.3490   -7.0829 O.3         1 OZZ      -0.1825
     23 O23        38.3405   -3.9457   -5.6133 O.2         1 OZZ      -0.3823
     24 O24        37.9535   -9.9247   -3.6475 O.2         1 OZZ      -0.4541
     25 O25        39.1647   -8.2225   -3.3257 O.2         1 OZZ      -0.4541
     26 C26        42.0154    0.3592   -6.5217 C.2         1 OZZ       0.0592
     27 C27        43.1766    0.3805   -7.1982 C.2         1 OZZ      -0.0116
     28 C28        44.3524    0.3634   -6.4974 C.2         1 OZZ       0.0683
     29 C29        43.1401    0.2827   -4.4939 C.2         1 OZZ       0.0592
     30 C30        44.3317    0.3020   -5.1340 C.2         1 OZZ      -0.0116
     31 O31        45.4206    0.4038   -7.0927 O.2         1 OZZ      -0.4519
     32 H1         38.7400    1.2915   -6.4635 H           1 OZZ       0.0667
     33 H2         40.4456    2.3809   -5.3169 H           1 OZZ       0.0678
     34 H3         40.8622    0.1806   -3.4106 H           1 OZZ       0.0999
     35 H4         38.1488   -0.3727   -3.9591 H           1 OZZ       0.0749
     36 H5         36.8997   -1.4992   -5.5062 H           1 OZZ       0.0477
     37 H6         37.6336    2.8440   -5.2661 H           1 OZZ       0.2102
     38 H7         39.1717    1.6594   -2.8915 H           1 OZZ       0.2101
     39 H8         39.0323   -1.1959   -7.4374 H           1 OZZ       0.0470
     40 H9         37.9038   -2.5525   -8.8668 H           1 OZZ       0.0643
     41 H10        36.4304   -2.0036   -8.0864 H           1 OZZ       0.0643
     42 H11        36.5870   -4.3087   -8.0748 H           1 OZZ       0.1867
     43 H12        36.1453   -9.4909   -5.3414 H           1 OZZ       0.1086
     44 H13        38.6883   -6.2092   -4.7107 H           1 OZZ       0.1563
     45 H14        35.1320   -6.3346   -8.3952 H           1 OZZ       0.3540
     46 H15        34.8119   -9.3080   -7.1526 H           1 OZZ       0.3497
     47 H16        41.1686    0.3676   -7.0488 H           1 OZZ       0.1185
     48 H17        43.1789    0.4124   -8.1929 H           1 OZZ       0.0387
     49 H18        43.1502    0.2372   -3.5009 H           1 OZZ       0.1185
     50 H19        45.1761    0.2748   -4.6108 H           1 OZZ       0.0387
@<TRIPOS>BOND
     1     1     2   1
     2     1     5   1
     3     1     8   1
     4     2     3   1
     5     2     9   1
     6     3     4   1
     7     3     7   1
     8     4     5   1
     9     5     6   1
    10     6    10   2
    11     7    26   1
    12     7    29   1
    13    10    11   1
    14    11    12   1
    15    12    13  am
    16    13    14   1
    17    13    23   2
    18    14    15  ar
    19    14    19  ar
    20    15    16  ar
    21    15    21   1
    22    16    17  ar
    23    16    22   1
    24    17    18  ar
    25    18    19  ar
    26    18    20   1
    27    20    24   2
    28    20    25   2
    29    26    27   2
    30    27    28   1
    31    28    30   1
    32    28    31   2
    33    29    30   2
    34     1    32   1
    35     2    33   1
    36     3    34   1
    37     5    35   1
    38     6    36   1
    39     8    37   1
    40     9    38   1
    41    10    39   1
    42    11    40   1
    43    11    41   1
    44    12    42   1
    45    17    43   1
    46    19    44   1
    47    21    45   1
    48    22    46   1
    49    26    47   1
    50    27    48   1
    51    29    49   1
    52    30    50   1
@<TRIPOS>SUBSTRUCTURE
     1  OZZ      1

