@<TRIPOS>MOLECULE
3ozt_ligand_089
    50    52
SMALL
GAST_HUCK
****
This file was generated by PARSER (from files_GN.cpp)

@<TRIPOS>ATOM
      1 C1         42.4427  -12.3116   -2.6092 C.3         1 OZZ       0.1189
      2 C2         43.5576  -12.1321   -3.6480 C.3         1 OZZ       0.1403
      3 C3         42.8036  -12.3549   -4.9785 C.3         1 OZZ       0.2027
      4 O4         41.4629  -11.8761   -4.7716 O.3         1 OZZ      -0.3296
      5 C5         41.1902  -11.7950   -3.3620 C.3         1 OZZ       0.1082
      6 C6         40.8292  -10.4135   -3.0671 C.2         1 OZZ      -0.0658
      7 N7         43.4250  -11.7266   -6.0962 N.pl3       1 OZZ      -0.2105
      8 O8         42.2909  -13.6839   -2.2348 O.3         1 OZZ      -0.3846
      9 O9         44.6426  -13.0415   -3.4765 O.3         1 OZZ      -0.3834
     10 C10        39.5779   -9.9411   -3.2026 C.2         1 OZZ      -0.0744
     11 C11        39.2098   -8.5619   -2.9459 C.3         1 OZZ       0.0473
     12 N12        38.4035   -8.0725   -4.0160 N.am        1 OZZ      -0.2765
     13 C13        38.7388   -7.2148   -4.9718 C.2         1 OZZ       0.2411
     14 C14        37.7763   -6.7702   -5.8828 C.ar        1 OZZ       0.2482
     15 C15        36.7568   -7.6254   -6.3780 C.ar        1 OZZ       0.3921
     16 C16        35.7643   -7.1191   -7.2403 C.ar        1 OZZ       0.3797
     17 C17        35.7842   -5.7690   -7.6282 C.ar        1 OZZ       0.1691
     18 C18        36.7860   -4.8877   -7.1614 C.ar        1 OZZ       0.2168
     19 C19        37.7738   -5.4155   -6.2910 C.ar        1 OZZ       0.1162
     20 N20        36.7907   -3.5710   -7.5304 N.2         1 OZZ      -0.1404
     21 O21        36.7426   -8.9468   -6.0512 O.3         1 OZZ      -0.1763
     22 O22        34.7615   -7.9101   -7.6934 O.3         1 OZZ      -0.1825
     23 O23        39.8767   -6.7611   -5.0230 O.2         1 OZZ      -0.3823
     24 O24        35.8780   -3.0645   -8.3122 O.2         1 OZZ      -0.4541
     25 O25        37.6354   -2.7935   -7.1676 O.2         1 OZZ      -0.4541
     26 C26        43.3839  -10.3893   -6.2202 C.2         1 OZZ       0.0592
     27 C27        43.9503   -9.7648   -7.2735 C.2         1 OZZ      -0.0116
     28 C28        44.5810  -10.5149   -8.2260 C.2         1 OZZ       0.0683
     29 C29        44.0554  -12.4579   -7.0282 C.2         1 OZZ       0.0592
     30 C30        44.6355  -11.8760   -8.1000 C.2         1 OZZ      -0.0116
     31 O31        45.1148   -9.9669   -9.1803 O.2         1 OZZ      -0.4519
     32 H1         42.6548  -11.7404   -1.7012 H           1 OZZ       0.0667
     33 H2         43.9457  -11.1115   -3.5874 H           1 OZZ       0.0678
     34 H3         42.6933  -13.4351   -5.1293 H           1 OZZ       0.0999
     35 H4         40.3408  -12.4523   -3.1363 H           1 OZZ       0.0749
     36 H5         41.5502   -9.7926   -2.7791 H           1 OZZ       0.0477
     37 H6         42.1558  -14.1746   -3.0744 H           1 OZZ       0.2102
     38 H7         45.0020  -12.8318   -2.5878 H           1 OZZ       0.2101
     39 H8         38.8548  -10.5666   -3.4774 H           1 OZZ       0.0470
     40 H9         40.0765   -7.9190   -2.7653 H           1 OZZ       0.0643
     41 H10        38.5903   -8.5330   -2.0484 H           1 OZZ       0.0643
     42 H11        37.4917   -8.4083   -4.0369 H           1 OZZ       0.1867
     43 H12        35.0523   -5.4300   -8.2539 H           1 OZZ       0.1086
     44 H13        38.4904   -4.7841   -5.9203 H           1 OZZ       0.1563
     45 H14        36.1381   -9.4076   -6.6680 H           1 OZZ       0.3540
     46 H15        35.0540   -8.1934   -8.5867 H           1 OZZ       0.3497
     47 H16        42.9244   -9.8266   -5.5400 H           1 OZZ       0.1185
     48 H17        43.9071   -8.7735   -7.3506 H           1 OZZ       0.0387
     49 H18        44.1216  -13.4487   -6.9464 H           1 OZZ       0.1185
     50 H19        45.0979  -12.4323   -8.7847 H           1 OZZ       0.0387
@<TRIPOS>BOND
     1     1     2   1
     2     1     5   1
     3     1     8   1
     4     2     3   1
     5     2     9   1
     6     3     4   1
     7     3     7   1
     8     4     5   1
     9     5     6   1
    10     6    10   2
    11     7    26   1
    12     7    29   1
    13    10    11   1
    14    11    12   1
    15    12    13  am
    16    13    14   1
    17    13    23   2
    18    14    15  ar
    19    14    19  ar
    20    15    16  ar
    21    15    21   1
    22    16    17  ar
    23    16    22   1
    24    17    18  ar
    25    18    19  ar
    26    18    20   1
    27    20    24   2
    28    20    25   2
    29    26    27   2
    30    27    28   1
    31    28    30   1
    32    28    31   2
    33    29    30   2
    34     1    32   1
    35     2    33   1
    36     3    34   1
    37     5    35   1
    38     6    36   1
    39     8    37   1
    40     9    38   1
    41    10    39   1
    42    11    40   1
    43    11    41   1
    44    12    42   1
    45    17    43   1
    46    19    44   1
    47    21    45   1
    48    22    46   1
    49    26    47   1
    50    27    48   1
    51    29    49   1
    52    30    50   1
@<TRIPOS>SUBSTRUCTURE
     1  OZZ      1

