@<TRIPOS>MOLECULE
3ozt_ligand_075
    50    52
SMALL
GAST_HUCK
****
This file was generated by PARSER (from files_GN.cpp)

@<TRIPOS>ATOM
      1 C1         35.5996   -7.2942   -5.9759 C.3         1 OZZ       0.1189
      2 C2         36.3207   -8.2057   -4.9725 C.3         1 OZZ       0.1403
      3 C3         37.6340   -8.5816   -5.7080 C.3         1 OZZ       0.2027
      4 O4         37.8876   -7.5071   -6.6423 O.3         1 OZZ      -0.3296
      5 C5         36.7717   -6.6094   -6.7092 C.3         1 OZZ       0.1082
      6 C6         37.0929   -5.2741   -6.1872 C.2         1 OZZ      -0.0658
      7 N7         38.7212   -8.9013   -4.8350 N.pl3       1 OZZ      -0.2105
      8 O8         34.7840   -8.0418   -6.8856 O.3         1 OZZ      -0.3846
      9 O9         35.5181   -9.3225   -4.5858 O.3         1 OZZ      -0.3834
     10 C10        37.9265   -5.0378   -5.1582 C.2         1 OZZ      -0.0744
     11 C11        38.1007   -3.7344   -4.5446 C.3         1 OZZ       0.0473
     12 N12        38.7971   -2.8376   -5.4161 N.am        1 OZZ      -0.2765
     13 C13        38.4071   -1.6257   -5.8037 C.2         1 OZZ       0.2411
     14 C14        39.2080   -0.8486   -6.6415 C.ar        1 OZZ       0.2482
     15 C15        39.9804   -1.4101   -7.6880 C.ar        1 OZZ       0.3921
     16 C16        40.7829   -0.5876   -8.5028 C.ar        1 OZZ       0.3797
     17 C17        40.8411    0.7996   -8.2700 C.ar        1 OZZ       0.1691
     18 C18        40.0918    1.3966   -7.2313 C.ar        1 OZZ       0.2168
     19 C19        39.2729    0.5544   -6.4386 C.ar        1 OZZ       0.1162
     20 N20        40.1496    2.7438   -6.9999 N.2         1 OZZ      -0.1404
     21 O21        39.9280   -2.7370   -7.9791 O.3         1 OZZ      -0.1763
     22 O22        41.4908   -1.1433   -9.5293 O.3         1 OZZ      -0.1825
     23 O23        37.3444   -1.1678   -5.3834 O.2         1 OZZ      -0.3823
     24 O24        40.9087    3.5404   -7.7140 O.2         1 OZZ      -0.4541
     25 O25        39.5310    3.2918   -6.1253 O.2         1 OZZ      -0.4541
     26 C26        39.9095   -8.2677   -4.9333 C.2         1 OZZ       0.0592
     27 C27        40.9355   -8.5728   -4.1142 C.2         1 OZZ      -0.0116
     28 C28        40.7673   -9.5431   -3.1638 C.2         1 OZZ       0.0683
     29 C29        38.5795   -9.8917   -3.9301 C.2         1 OZZ       0.0592
     30 C30        39.5776  -10.2190   -3.0842 C.2         1 OZZ      -0.0116
     31 O31        41.6800   -9.8166   -2.3943 O.2         1 OZZ      -0.4519
     32 H1         34.9559   -6.5795   -5.4669 H           1 OZZ       0.0667
     33 H2         36.5541   -7.6300   -4.0700 H           1 OZZ       0.0678
     34 H3         37.4328   -9.4598   -6.3323 H           1 OZZ       0.0999
     35 H4         36.5085   -6.4866   -7.7683 H           1 OZZ       0.0749
     36 H5         36.6198   -4.5024   -6.6014 H           1 OZZ       0.0477
     37 H6         35.2640   -8.8754   -7.0824 H           1 OZZ       0.2102
     38 H7         35.3461   -9.8259   -5.4055 H           1 OZZ       0.2101
     39 H8         38.4059   -5.8028   -4.7520 H           1 OZZ       0.0470
     40 H9         38.7117   -3.8355   -3.6522 H           1 OZZ       0.0643
     41 H10        37.1252   -3.3560   -4.2460 H           1 OZZ       0.0643
     42 H11        39.6710   -3.1338   -5.7243 H           1 OZZ       0.1867
     43 H12        41.4297    1.3765   -8.8751 H           1 OZZ       0.1086
     44 H13        38.7285    0.9747   -5.6861 H           1 OZZ       0.1563
     45 H14        40.8233   -3.0940   -7.7789 H           1 OZZ       0.3540
     46 H15        41.4792   -0.4743  -10.2555 H           1 OZZ       0.3497
     47 H16        40.0700   -7.5741   -5.6178 H           1 OZZ       0.1185
     48 H17        41.8060   -8.1034   -4.2032 H           1 OZZ       0.0387
     49 H18        37.7398  -10.4116   -3.8698 H           1 OZZ       0.1185
     50 H19        39.4565  -10.9500   -2.4253 H           1 OZZ       0.0387
@<TRIPOS>BOND
     1     1     2   1
     2     1     5   1
     3     1     8   1
     4     2     3   1
     5     2     9   1
     6     3     4   1
     7     3     7   1
     8     4     5   1
     9     5     6   1
    10     6    10   2
    11     7    26   1
    12     7    29   1
    13    10    11   1
    14    11    12   1
    15    12    13  am
    16    13    14   1
    17    13    23   2
    18    14    15  ar
    19    14    19  ar
    20    15    16  ar
    21    15    21   1
    22    16    17  ar
    23    16    22   1
    24    17    18  ar
    25    18    19  ar
    26    18    20   1
    27    20    24   2
    28    20    25   2
    29    26    27   2
    30    27    28   1
    31    28    30   1
    32    28    31   2
    33    29    30   2
    34     1    32   1
    35     2    33   1
    36     3    34   1
    37     5    35   1
    38     6    36   1
    39     8    37   1
    40     9    38   1
    41    10    39   1
    42    11    40   1
    43    11    41   1
    44    12    42   1
    45    17    43   1
    46    19    44   1
    47    21    45   1
    48    22    46   1
    49    26    47   1
    50    27    48   1
    51    29    49   1
    52    30    50   1
@<TRIPOS>SUBSTRUCTURE
     1  OZZ      1

