@<TRIPOS>MOLECULE
3ozt_ligand_042
    50    52
SMALL
GAST_HUCK
****
This file was generated by PARSER (from files_GN.cpp)

@<TRIPOS>ATOM
      1 C1         36.8212   -8.3284   -5.8880 C.3         1 OZZ       0.1189
      2 C2         36.0697   -7.6380   -7.0410 C.3         1 OZZ       0.1403
      3 C3         36.0836   -6.1388   -6.6505 C.3         1 OZZ       0.2027
      4 O4         37.3777   -6.0200   -6.0295 O.3         1 OZZ      -0.3296
      5 C5         37.6131   -7.1759   -5.2256 C.3         1 OZZ       0.1082
      6 C6         39.0461   -7.4157   -5.1748 C.2         1 OZZ      -0.0658
      7 N7         35.9103   -5.1437   -7.6677 N.pl3       1 OZZ      -0.2105
      8 O8         35.9303   -8.9356   -4.9503 O.3         1 OZZ      -0.3846
      9 O9         34.7565   -8.1592   -7.2436 O.3         1 OZZ      -0.3834
     10 C10        39.7493   -7.6305   -4.0536 C.2         1 OZZ      -0.0744
     11 C11        41.1839   -7.8944   -3.9836 C.3         1 OZZ       0.0473
     12 N12        41.8086   -8.1292   -5.2605 N.am        1 OZZ      -0.2765
     13 C13        42.7041   -7.3702   -5.8817 C.2         1 OZZ       0.2411
     14 C14        43.0368   -7.6471   -7.2190 C.ar        1 OZZ       0.2482
     15 C15        44.3579   -7.5130   -7.7166 C.ar        1 OZZ       0.3921
     16 C16        44.6507   -7.8513   -9.0521 C.ar        1 OZZ       0.3797
     17 C17        43.6264   -8.2590   -9.9235 C.ar        1 OZZ       0.1691
     18 C18        42.2836   -8.3488   -9.4830 C.ar        1 OZZ       0.2168
     19 C19        42.0246   -8.0483   -8.1236 C.ar        1 OZZ       0.1162
     20 N20        41.2780   -8.7082  -10.3373 N.2         1 OZZ      -0.1404
     21 O21        45.3896   -7.1044   -6.9306 O.3         1 OZZ      -0.1763
     22 O22        45.9236   -7.7789   -9.5159 O.3         1 OZZ      -0.1825
     23 O23        43.2014   -6.4113   -5.3253 O.2         1 OZZ      -0.3823
     24 O24        41.4786   -8.9689  -11.5975 O.2         1 OZZ      -0.4541
     25 O25        40.1265   -8.7557  -10.0002 O.2         1 OZZ      -0.4541
     26 C26        36.3219   -3.8839   -7.4235 C.2         1 OZZ       0.0592
     27 C27        36.1626   -2.8970   -8.3307 C.2         1 OZZ      -0.0116
     28 C28        35.5329   -3.1783   -9.5085 C.2         1 OZZ       0.0683
     29 C29        35.2131   -5.3845   -8.7931 C.2         1 OZZ       0.0592
     30 C30        35.0308   -4.4307   -9.7283 C.2         1 OZZ      -0.0116
     31 O31        35.3854   -2.3008  -10.3473 O.2         1 OZZ      -0.4519
     32 H1         37.4675   -9.1139   -6.2883 H           1 OZZ       0.0667
     33 H2         36.6374   -7.7645   -7.9641 H           1 OZZ       0.0678
     34 H3         35.3125   -5.9649   -5.8884 H           1 OZZ       0.0999
     35 H4         37.2144   -6.9679   -4.2273 H           1 OZZ       0.0749
     36 H5         39.5137   -7.4364   -6.0499 H           1 OZZ       0.0477
     37 H6         35.4950   -9.6542   -5.4544 H           1 OZZ       0.2102
     38 H7         34.8789   -9.1288   -7.3318 H           1 OZZ       0.2101
     39 H8         39.2672   -7.6032   -3.1812 H           1 OZZ       0.0470
     40 H9         41.3386   -8.7984   -3.3922 H           1 OZZ       0.0643
     41 H10        41.6525   -7.0669   -3.4448 H           1 OZZ       0.0643
     42 H11        41.4693   -8.8972   -5.7420 H           1 OZZ       0.1867
     43 H12        43.8687   -8.4789  -10.8916 H           1 OZZ       0.1086
     44 H13        41.0593   -8.1058   -7.7951 H           1 OZZ       0.1563
     45 H14        45.1161   -6.2299   -6.5846 H           1 OZZ       0.3540
     46 H15        46.2697   -8.6936   -9.4344 H           1 OZZ       0.3497
     47 H16        36.7563   -3.6417   -6.5597 H           1 OZZ       0.1185
     48 H17        36.4742   -1.9738   -8.1275 H           1 OZZ       0.0387
     49 H18        34.7992   -6.2693   -8.9632 H           1 OZZ       0.1185
     50 H19        34.5039   -4.6299  -10.5490 H           1 OZZ       0.0387
@<TRIPOS>BOND
     1     1     2   1
     2     1     5   1
     3     1     8   1
     4     2     3   1
     5     2     9   1
     6     3     4   1
     7     3     7   1
     8     4     5   1
     9     5     6   1
    10     6    10   2
    11     7    26   1
    12     7    29   1
    13    10    11   1
    14    11    12   1
    15    12    13  am
    16    13    14   1
    17    13    23   2
    18    14    15  ar
    19    14    19  ar
    20    15    16  ar
    21    15    21   1
    22    16    17  ar
    23    16    22   1
    24    17    18  ar
    25    18    19  ar
    26    18    20   1
    27    20    24   2
    28    20    25   2
    29    26    27   2
    30    27    28   1
    31    28    30   1
    32    28    31   2
    33    29    30   2
    34     1    32   1
    35     2    33   1
    36     3    34   1
    37     5    35   1
    38     6    36   1
    39     8    37   1
    40     9    38   1
    41    10    39   1
    42    11    40   1
    43    11    41   1
    44    12    42   1
    45    17    43   1
    46    19    44   1
    47    21    45   1
    48    22    46   1
    49    26    47   1
    50    27    48   1
    51    29    49   1
    52    30    50   1
@<TRIPOS>SUBSTRUCTURE
     1  OZZ      1

