@<TRIPOS>MOLECULE
3ozt_ligand_033
    50    52
SMALL
GAST_HUCK
****
This file was generated by PARSER (from files_GN.cpp)

@<TRIPOS>ATOM
      1 C1         35.2135   -4.1259  -10.1092 C.3         1 OZZ       0.1189
      2 C2         35.0334   -5.5804  -10.5589 C.3         1 OZZ       0.1403
      3 C3         33.5663   -5.5938  -11.0608 C.3         1 OZZ       0.2027
      4 O4         33.4054   -4.3019  -11.6735 O.3         1 OZZ      -0.3296
      5 C5         34.3623   -3.3601  -11.1588 C.3         1 OZZ       0.1082
      6 C6         34.9654   -2.7372  -12.3293 C.2         1 OZZ      -0.0658
      7 N7         33.0692   -6.6014  -11.9433 N.pl3       1 OZZ      -0.2105
      8 O8         34.7034   -3.9571   -8.7846 O.3         1 OZZ      -0.3846
      9 O9         35.2549   -6.5099   -9.4962 O.3         1 OZZ      -0.3834
     10 C10        36.2709   -2.5293  -12.5836 C.2         1 OZZ      -0.0744
     11 C11        36.7346   -1.7226  -13.7010 C.3         1 OZZ       0.0473
     12 N12        35.9826   -0.5179  -13.9090 N.am        1 OZZ      -0.2765
     13 C13        35.6953    0.4215  -13.0103 C.2         1 OZZ       0.2411
     14 C14        34.9199    1.5372  -13.3432 C.ar        1 OZZ       0.2482
     15 C15        33.8697    1.4852  -14.2998 C.ar        1 OZZ       0.3921
     16 C16        33.2298    2.6698  -14.7195 C.ar        1 OZZ       0.3797
     17 C17        33.5764    3.8988  -14.1422 C.ar        1 OZZ       0.1691
     18 C18        34.5382    3.9846  -13.1118 C.ar        1 OZZ       0.2168
     19 C19        35.2031    2.7932  -12.7382 C.ar        1 OZZ       0.1162
     20 N20        34.8151    5.1857  -12.5228 N.2         1 OZZ      -0.1404
     21 O21        33.4714    0.3012  -14.8448 O.3         1 OZZ      -0.1763
     22 O22        32.2994    2.6396  -15.7069 O.3         1 OZZ      -0.1825
     23 O23        36.1666    0.3240  -11.8790 O.2         1 OZZ      -0.3823
     24 O24        34.1883    6.2799  -12.8461 O.2         1 OZZ      -0.4541
     25 O25        35.6205    5.3114  -11.6412 O.2         1 OZZ      -0.4541
     26 C26        31.7848   -6.5186  -12.3347 C.2         1 OZZ       0.0592
     27 C27        31.2792   -7.3405  -13.2778 C.2         1 OZZ      -0.0116
     28 C28        32.0885   -8.2987  -13.8185 C.2         1 OZZ       0.0683
     29 C29        33.8295   -7.6013  -12.4197 C.2         1 OZZ       0.0592
     30 C30        33.3725   -8.4291  -13.3791 C.2         1 OZZ      -0.0116
     31 O31        31.6533   -9.0670  -14.6627 O.2         1 OZZ      -0.4519
     32 H1         36.2638   -3.8410  -10.0887 H           1 OZZ       0.0667
     33 H2         35.7260   -5.7776  -11.3839 H           1 OZZ       0.0678
     34 H3         32.9437   -5.6109  -10.1612 H           1 OZZ       0.0999
     35 H4         33.8108   -2.5646  -10.6516 H           1 OZZ       0.0749
     36 H5         34.3135   -2.3491  -12.9752 H           1 OZZ       0.0477
     37 H6         34.8021   -3.0003   -8.5814 H           1 OZZ       0.2102
     38 H7         35.0696   -7.3896   -9.8801 H           1 OZZ       0.2101
     39 H8         36.9581   -2.8695  -11.9661 H           1 OZZ       0.0470
     40 H9         36.6622   -2.3215  -14.6139 H           1 OZZ       0.0643
     41 H10        37.7867   -1.4585  -13.5650 H           1 OZZ       0.0643
     42 H11        35.6402   -0.4104  -14.8078 H           1 OZZ       0.1867
     43 H12        33.1123    4.7384  -14.4854 H           1 OZZ       0.1086
     44 H13        35.9453    2.8528  -12.0361 H           1 OZZ       0.1563
     45 H14        32.5352    0.4207  -15.1185 H           1 OZZ       0.3540
     46 H15        32.4231    3.4669  -16.2223 H           1 OZZ       0.3497
     47 H16        31.1721   -5.8375  -11.9380 H           1 OZZ       0.1185
     48 H17        30.3282   -7.2564  -13.5590 H           1 OZZ       0.0387
     49 H18        34.7486   -7.7583  -12.0834 H           1 OZZ       0.1185
     50 H19        33.9613   -9.1399  -13.7453 H           1 OZZ       0.0387
@<TRIPOS>BOND
     1     1     2   1
     2     1     5   1
     3     1     8   1
     4     2     3   1
     5     2     9   1
     6     3     4   1
     7     3     7   1
     8     4     5   1
     9     5     6   1
    10     6    10   2
    11     7    26   1
    12     7    29   1
    13    10    11   1
    14    11    12   1
    15    12    13  am
    16    13    14   1
    17    13    23   2
    18    14    15  ar
    19    14    19  ar
    20    15    16  ar
    21    15    21   1
    22    16    17  ar
    23    16    22   1
    24    17    18  ar
    25    18    19  ar
    26    18    20   1
    27    20    24   2
    28    20    25   2
    29    26    27   2
    30    27    28   1
    31    28    30   1
    32    28    31   2
    33    29    30   2
    34     1    32   1
    35     2    33   1
    36     3    34   1
    37     5    35   1
    38     6    36   1
    39     8    37   1
    40     9    38   1
    41    10    39   1
    42    11    40   1
    43    11    41   1
    44    12    42   1
    45    17    43   1
    46    19    44   1
    47    21    45   1
    48    22    46   1
    49    26    47   1
    50    27    48   1
    51    29    49   1
    52    30    50   1
@<TRIPOS>SUBSTRUCTURE
     1  OZZ      1

