@<TRIPOS>MOLECULE
3ozt_ligand_087
    50    52
SMALL
GAST_HUCK
****
This file was generated by PARSER (from files_GN.cpp)

@<TRIPOS>ATOM
      1 C1         37.1226   -8.8904   -4.4232 C.3         1 OZZ       0.1189
      2 C2         38.0092   -9.6995   -3.4456 C.3         1 OZZ       0.1403
      3 C3         39.3499   -8.9083   -3.4362 C.3         1 OZZ       0.2027
      4 O4         39.0328   -7.6253   -4.0030 O.3         1 OZZ      -0.3296
      5 C5         38.1053   -7.8928   -5.0658 C.3         1 OZZ       0.1082
      6 C6         37.4810   -6.6856   -5.5889 C.2         1 OZZ      -0.0658
      7 N7         40.0494   -8.7618   -2.1969 N.pl3       1 OZZ      -0.2105
      8 O8         36.4834   -9.7117   -5.3992 O.3         1 OZZ      -0.3846
      9 O9         38.2417  -11.0442   -3.8763 O.3         1 OZZ      -0.3834
     10 C10        36.9311   -6.6287   -6.8162 C.2         1 OZZ      -0.0744
     11 C11        36.2926   -5.4341   -7.3472 C.3         1 OZZ       0.0473
     12 N12        35.7206   -5.5766   -8.6603 N.am        1 OZZ      -0.2765
     13 C13        34.7318   -6.3917   -9.0271 C.2         1 OZZ       0.2411
     14 C14        34.1368   -6.3751  -10.3075 C.ar        1 OZZ       0.2482
     15 C15        34.2393   -5.2707  -11.2000 C.ar        1 OZZ       0.3921
     16 C16        33.5540   -5.2646  -12.4333 C.ar        1 OZZ       0.3797
     17 C17        32.7592   -6.3593  -12.8031 C.ar        1 OZZ       0.1691
     18 C18        32.6256   -7.4889  -11.9666 C.ar        1 OZZ       0.2168
     19 C19        33.3297   -7.4692  -10.7328 C.ar        1 OZZ       0.1162
     20 N20        31.8195   -8.5304  -12.3301 N.2         1 OZZ      -0.1404
     21 O21        34.9270   -4.1428  -10.8898 O.3         1 OZZ      -0.1763
     22 O22        33.6219   -4.2120  -13.2889 O.3         1 OZZ      -0.1825
     23 O23        34.2855   -7.1561   -8.1770 O.2         1 OZZ      -0.3823
     24 O24        31.1245   -8.5296  -13.4342 O.2         1 OZZ      -0.4541
     25 O25        31.6856   -9.5191  -11.6605 O.2         1 OZZ      -0.4541
     26 C26        41.3875   -8.9123   -2.1614 C.2         1 OZZ       0.0592
     27 C27        42.0974   -8.6402   -1.0402 C.2         1 OZZ      -0.0116
     28 C28        41.4336   -8.2300    0.0800 C.2         1 OZZ       0.0683
     29 C29        39.4078   -8.3448   -1.0919 C.2         1 OZZ       0.0592
     30 C30        40.0735   -8.0944    0.0544 C.2         1 OZZ      -0.0116
     31 O31        42.0594   -7.9310    1.0901 O.2         1 OZZ      -0.4519
     32 H1         36.3538   -8.3552   -3.8520 H           1 OZZ       0.0667
     33 H2         37.5160   -9.7392   -2.4715 H           1 OZZ       0.0678
     34 H3         39.9992   -9.4040   -4.1750 H           1 OZZ       0.0999
     35 H4         38.6490   -8.3883   -5.8809 H           1 OZZ       0.0749
     36 H5         37.4382   -5.8818   -5.0023 H           1 OZZ       0.0477
     37 H6         36.0009   -9.0920   -5.9814 H           1 OZZ       0.2102
     38 H7         37.3973  -11.3357   -4.2859 H           1 OZZ       0.2101
     39 H8         36.9569   -7.4395   -7.3906 H           1 OZZ       0.0470
     40 H9         37.0436   -4.6413   -7.3947 H           1 OZZ       0.0643
     41 H10        35.5097   -5.1093   -6.6604 H           1 OZZ       0.0643
     42 H11        36.0802   -4.9881   -9.3384 H           1 OZZ       0.1867
     43 H12        32.2597   -6.3181  -13.6952 H           1 OZZ       0.1086
     44 H13        33.2202   -8.2782  -10.1136 H           1 OZZ       0.1563
     45 H14        34.3030   -3.6311  -10.3333 H           1 OZZ       0.3540
     46 H15        33.4859   -3.4086  -12.7404 H           1 OZZ       0.3497
     47 H16        41.8983   -9.2078   -2.9620 H           1 OZZ       0.1185
     48 H17        43.0864   -8.7340   -1.0401 H           1 OZZ       0.0387
     49 H18        38.4211   -8.2300   -1.0858 H           1 OZZ       0.1185
     50 H19        39.5819   -7.8269    0.8756 H           1 OZZ       0.0387
@<TRIPOS>BOND
     1     1     2   1
     2     1     5   1
     3     1     8   1
     4     2     3   1
     5     2     9   1
     6     3     4   1
     7     3     7   1
     8     4     5   1
     9     5     6   1
    10     6    10   2
    11     7    26   1
    12     7    29   1
    13    10    11   1
    14    11    12   1
    15    12    13  am
    16    13    14   1
    17    13    23   2
    18    14    15  ar
    19    14    19  ar
    20    15    16  ar
    21    15    21   1
    22    16    17  ar
    23    16    22   1
    24    17    18  ar
    25    18    19  ar
    26    18    20   1
    27    20    24   2
    28    20    25   2
    29    26    27   2
    30    27    28   1
    31    28    30   1
    32    28    31   2
    33    29    30   2
    34     1    32   1
    35     2    33   1
    36     3    34   1
    37     5    35   1
    38     6    36   1
    39     8    37   1
    40     9    38   1
    41    10    39   1
    42    11    40   1
    43    11    41   1
    44    12    42   1
    45    17    43   1
    46    19    44   1
    47    21    45   1
    48    22    46   1
    49    26    47   1
    50    27    48   1
    51    29    49   1
    52    30    50   1
@<TRIPOS>SUBSTRUCTURE
     1  OZZ      1

