@<TRIPOS>MOLECULE
3ozt_ligand_047
    50    52
SMALL
GAST_HUCK
****
This file was generated by PARSER (from files_GN.cpp)

@<TRIPOS>ATOM
      1 C1         35.6212   -1.7341  -13.3257 C.3         1 OZZ       0.1189
      2 C2         34.7004   -0.5826  -13.8122 C.3         1 OZZ       0.1403
      3 C3         34.2286    0.0782  -12.4880 C.3         1 OZZ       0.2027
      4 O4         35.1103   -0.4060  -11.4572 O.3         1 OZZ      -0.3296
      5 C5         35.3891   -1.7688  -11.7959 C.3         1 OZZ       0.1082
      6 C6         36.4808   -2.3212  -11.0038 C.2         1 OZZ      -0.0658
      7 N7         34.1687    1.5052  -12.5295 N.pl3       1 OZZ      -0.2105
      8 O8         35.3466   -3.0014  -13.9300 O.3         1 OZZ      -0.3846
      9 O9         33.5911   -1.0504  -14.5955 O.3         1 OZZ      -0.3834
     10 C10        37.7703   -1.9673  -11.1597 C.2         1 OZZ      -0.0744
     11 C11        38.8754   -2.5829  -10.4308 C.3         1 OZZ       0.0473
     12 N12        39.8679   -3.1127  -11.3074 N.am        1 OZZ      -0.2765
     13 C13        39.6741   -4.0109  -12.2786 C.2         1 OZZ       0.2411
     14 C14        40.7524   -4.6186  -12.8768 C.ar        1 OZZ       0.2482
     15 C15        41.0906   -5.9582  -12.5603 C.ar        1 OZZ       0.3921
     16 C16        42.1807   -6.5774  -13.1919 C.ar        1 OZZ       0.3797
     17 C17        42.9186   -5.8795  -14.1617 C.ar        1 OZZ       0.1691
     18 C18        42.6065   -4.5410  -14.5079 C.ar        1 OZZ       0.2168
     19 C19        41.5296   -3.9209  -13.8362 C.ar        1 OZZ       0.1162
     20 N20        43.3227   -3.8829  -15.4633 N.2         1 OZZ      -0.1404
     21 O21        40.3946   -6.6560  -11.6381 O.3         1 OZZ      -0.1763
     22 O22        42.5019   -7.8551  -12.8745 O.3         1 OZZ      -0.1825
     23 O23        38.5352   -4.3547  -12.6077 O.2         1 OZZ      -0.3823
     24 O24        44.3168   -4.4368  -16.1072 O.2         1 OZZ      -0.4541
     25 O25        43.0788   -2.7519  -15.7978 O.2         1 OZZ      -0.4541
     26 C26        32.9856    2.1336  -12.5354 C.2         1 OZZ       0.0592
     27 C27        32.9037    3.4692  -12.6661 C.2         1 OZZ      -0.0116
     28 C28        34.0562    4.1890  -12.7983 C.2         1 OZZ       0.0683
     29 C29        35.3068    2.2222  -12.6093 C.2         1 OZZ       0.0592
     30 C30        35.2647    3.5642  -12.7512 C.2         1 OZZ      -0.0116
     31 O31        33.9956    5.3969  -12.9947 O.2         1 OZZ      -0.4519
     32 H1         36.6732   -1.4706  -13.5423 H           1 OZZ       0.0667
     33 H2         35.2796    0.1073  -14.4323 H           1 OZZ       0.0678
     34 H3         33.2412   -0.3487  -12.2446 H           1 OZZ       0.0999
     35 H4         34.4915   -2.3669  -11.5961 H           1 OZZ       0.0749
     36 H5         36.2525   -3.0104  -10.3239 H           1 OZZ       0.0477
     37 H6         35.1536   -2.7797  -14.8595 H           1 OZZ       0.2102
     38 H7         33.1024   -0.2495  -14.8807 H           1 OZZ       0.2101
     39 H8         37.9886   -1.2912  -11.8698 H           1 OZZ       0.0470
     40 H9         38.5261   -3.3700   -9.7580 H           1 OZZ       0.0643
     41 H10        39.3367   -1.8131   -9.8095 H           1 OZZ       0.0643
     42 H11        40.7918   -2.8699  -11.1117 H           1 OZZ       0.1867
     43 H12        43.6862   -6.3701  -14.6285 H           1 OZZ       0.1086
     44 H13        41.2765   -2.9537  -14.0637 H           1 OZZ       0.1563
     45 H14        39.5341   -6.8499  -12.0810 H           1 OZZ       0.3540
     46 H15        42.3478   -8.3621  -13.7041 H           1 OZZ       0.3497
     47 H16        32.1299    1.6186  -12.4693 H           1 OZZ       0.1185
     48 H17        32.0162    3.9089  -12.6836 H           1 OZZ       0.0387
     49 H18        36.1958    1.7789  -12.5842 H           1 OZZ       0.1185
     50 H19        36.1091    4.0797  -12.8548 H           1 OZZ       0.0387
@<TRIPOS>BOND
     1     1     2   1
     2     1     5   1
     3     1     8   1
     4     2     3   1
     5     2     9   1
     6     3     4   1
     7     3     7   1
     8     4     5   1
     9     5     6   1
    10     6    10   2
    11     7    26   1
    12     7    29   1
    13    10    11   1
    14    11    12   1
    15    12    13  am
    16    13    14   1
    17    13    23   2
    18    14    15  ar
    19    14    19  ar
    20    15    16  ar
    21    15    21   1
    22    16    17  ar
    23    16    22   1
    24    17    18  ar
    25    18    19  ar
    26    18    20   1
    27    20    24   2
    28    20    25   2
    29    26    27   2
    30    27    28   1
    31    28    30   1
    32    28    31   2
    33    29    30   2
    34     1    32   1
    35     2    33   1
    36     3    34   1
    37     5    35   1
    38     6    36   1
    39     8    37   1
    40     9    38   1
    41    10    39   1
    42    11    40   1
    43    11    41   1
    44    12    42   1
    45    17    43   1
    46    19    44   1
    47    21    45   1
    48    22    46   1
    49    26    47   1
    50    27    48   1
    51    29    49   1
    52    30    50   1
@<TRIPOS>SUBSTRUCTURE
     1  OZZ      1

