@<TRIPOS>MOLECULE
3ozt_ligand_015
    50    52
SMALL
GAST_HUCK
****
This file was generated by PARSER (from files_GN.cpp)

@<TRIPOS>ATOM
      1 C1         37.7462   -3.6356   -4.8514 C.3         1 OZZ       0.1189
      2 C2         37.3206   -2.5754   -5.8685 C.3         1 OZZ       0.1403
      3 C3         38.1889   -2.9320   -7.1177 C.3         1 OZZ       0.2027
      4 O4         38.3064   -4.3679   -7.0693 O.3         1 OZZ      -0.3296
      5 C5         37.9821   -4.8730   -5.7600 C.3         1 OZZ       0.1082
      6 C6         36.8262   -5.7579   -5.8918 C.2         1 OZZ      -0.0658
      7 N7         37.8567   -2.5188   -8.4494 N.pl3       1 OZZ      -0.2105
      8 O8         38.9363   -3.2706   -4.1504 O.3         1 OZZ      -0.3846
      9 O9         37.4932   -1.2254   -5.4308 O.3         1 OZZ      -0.3834
     10 C10        36.8111   -6.8185   -6.7243 C.2         1 OZZ      -0.0744
     11 C11        35.6399   -7.6523   -6.9449 C.3         1 OZZ       0.0473
     12 N12        35.1055   -7.5117   -8.2667 N.am        1 OZZ      -0.2765
     13 C13        34.5699   -6.4144   -8.7977 C.2         1 OZZ       0.2411
     14 C14        34.0498   -6.4115  -10.0965 C.ar        1 OZZ       0.2482
     15 C15        34.2280   -5.2972  -10.9545 C.ar        1 OZZ       0.3921
     16 C16        33.6420   -5.2735  -12.2377 C.ar        1 OZZ       0.3797
     17 C17        32.8490   -6.3518  -12.6647 C.ar        1 OZZ       0.1691
     18 C18        32.6490   -7.4909  -11.8503 C.ar        1 OZZ       0.2168
     19 C19        33.2801   -7.5022  -10.5743 C.ar        1 OZZ       0.1162
     20 N20        31.8463   -8.5113  -12.2718 N.2         1 OZZ      -0.1404
     21 O21        34.9548   -4.2157  -10.5794 O.3         1 OZZ      -0.1763
     22 O22        33.8164   -4.2192  -13.0736 O.3         1 OZZ      -0.1825
     23 O23        34.5102   -5.3938   -8.1280 O.2         1 OZZ      -0.3823
     24 O24        31.2137   -8.4889  -13.4170 O.2         1 OZZ      -0.4541
     25 O25        31.6562   -9.5060  -11.6224 O.2         1 OZZ      -0.4541
     26 C26        38.7488   -2.7622   -9.4267 C.2         1 OZZ       0.0592
     27 C27        38.5137   -2.4173  -10.7111 C.2         1 OZZ      -0.0116
     28 C28        37.3368   -1.8093  -11.0282 C.2         1 OZZ       0.0683
     29 C29        36.7036   -1.9095   -8.7818 C.2         1 OZZ       0.0592
     30 C30        36.4201   -1.5571  -10.0452 C.2         1 OZZ      -0.0116
     31 O31        37.0972   -1.5010  -12.1871 O.2         1 OZZ      -0.4519
     32 H1         36.9733   -3.8086   -4.0929 H           1 OZZ       0.0667
     33 H2         36.2649   -2.7418   -6.0429 H           1 OZZ       0.0678
     34 H3         39.1841   -2.5278   -6.8937 H           1 OZZ       0.0999
     35 H4         38.8211   -5.4589   -5.3822 H           1 OZZ       0.0749
     36 H5         36.0017   -5.5511   -5.3770 H           1 OZZ       0.0477
     37 H6         38.6633   -2.5541   -3.5344 H           1 OZZ       0.2102
     38 H7         38.4592   -1.1112   -5.3000 H           1 OZZ       0.2101
     39 H8         37.6239   -7.0168   -7.2580 H           1 OZZ       0.0470
     40 H9         34.8500   -7.4607   -6.2154 H           1 OZZ       0.0643
     41 H10        35.9471   -8.6940   -6.8190 H           1 OZZ       0.0643
     42 H11        35.1332   -8.2946   -8.8267 H           1 OZZ       0.1867
     43 H12        32.4170   -6.2950  -13.5895 H           1 OZZ       0.1086
     44 H13        33.1182   -8.3038   -9.9591 H           1 OZZ       0.1563
     45 H14        34.3013   -3.6457  -10.1214 H           1 OZZ       0.3540
     46 H15        34.7893   -4.1064  -13.1434 H           1 OZZ       0.3497
     47 H16        39.6153   -3.2072   -9.2286 H           1 OZZ       0.1185
     48 H17        39.1933   -2.6044  -11.4168 H           1 OZZ       0.0387
     49 H18        36.0190   -1.6861   -8.1242 H           1 OZZ       0.1185
     50 H19        35.5500   -1.1224  -10.2654 H           1 OZZ       0.0387
@<TRIPOS>BOND
     1     1     2   1
     2     1     5   1
     3     1     8   1
     4     2     3   1
     5     2     9   1
     6     3     4   1
     7     3     7   1
     8     4     5   1
     9     5     6   1
    10     6    10   2
    11     7    26   1
    12     7    29   1
    13    10    11   1
    14    11    12   1
    15    12    13  am
    16    13    14   1
    17    13    23   2
    18    14    15  ar
    19    14    19  ar
    20    15    16  ar
    21    15    21   1
    22    16    17  ar
    23    16    22   1
    24    17    18  ar
    25    18    19  ar
    26    18    20   1
    27    20    24   2
    28    20    25   2
    29    26    27   2
    30    27    28   1
    31    28    30   1
    32    28    31   2
    33    29    30   2
    34     1    32   1
    35     2    33   1
    36     3    34   1
    37     5    35   1
    38     6    36   1
    39     8    37   1
    40     9    38   1
    41    10    39   1
    42    11    40   1
    43    11    41   1
    44    12    42   1
    45    17    43   1
    46    19    44   1
    47    21    45   1
    48    22    46   1
    49    26    47   1
    50    27    48   1
    51    29    49   1
    52    30    50   1
@<TRIPOS>SUBSTRUCTURE
     1  OZZ      1

