@<TRIPOS>MOLECULE
3ozt_ligand_057
    50    52
SMALL
GAST_HUCK
****
This file was generated by PARSER (from files_GN.cpp)

@<TRIPOS>ATOM
      1 C1         35.2727   -3.4059  -11.4249 C.3         1 OZZ       0.1189
      2 C2         34.9279   -4.8901  -11.2254 C.3         1 OZZ       0.1403
      3 C3         33.6357   -5.0554  -12.0596 C.3         1 OZZ       0.2027
      4 O4         33.8994   -4.2588  -13.2207 O.3         1 OZZ      -0.3296
      5 C5         34.6924   -3.1146  -12.8417 C.3         1 OZZ       0.1082
      6 C6         35.7043   -2.8701  -13.8608 C.2         1 OZZ      -0.0658
      7 N7         33.1437   -6.3428  -12.4524 N.pl3       1 OZZ      -0.2105
      8 O8         34.6750   -2.5518  -10.4436 O.3         1 OZZ      -0.3846
      9 O9         34.7514   -5.2747   -9.8613 O.3         1 OZZ      -0.3834
     10 C10        36.6794   -1.9484  -13.7227 C.2         1 OZZ      -0.0744
     11 C11        37.7454   -1.7877  -14.6899 C.3         1 OZZ       0.0473
     12 N12        38.5004   -0.5933  -14.4569 N.am        1 OZZ      -0.2765
     13 C13        39.7889   -0.5023  -14.1312 C.2         1 OZZ       0.2411
     14 C14        40.4030    0.7337  -13.9318 C.ar        1 OZZ       0.2482
     15 C15        40.1184    1.8617  -14.7529 C.ar        1 OZZ       0.3921
     16 C16        40.7581    3.0956  -14.5160 C.ar        1 OZZ       0.3797
     17 C17        41.6909    3.2098  -13.4716 C.ar        1 OZZ       0.1691
     18 C18        42.0076    2.1211  -12.6344 C.ar        1 OZZ       0.2168
     19 C19        41.3535    0.8882  -12.8863 C.ar        1 OZZ       0.1162
     20 N20        42.9059    2.2556  -11.6128 N.2         1 OZZ      -0.1404
     21 O21        39.2554    1.7630  -15.7965 O.3         1 OZZ      -0.1763
     22 O22        40.5049    4.1867  -15.2777 O.3         1 OZZ      -0.1825
     23 O23        40.4512   -1.5303  -13.9826 O.2         1 OZZ      -0.3823
     24 O24        43.5104    3.3893  -11.3650 O.2         1 OZZ      -0.4541
     25 O25        43.1983    1.3564  -10.8726 O.2         1 OZZ      -0.4541
     26 C26        33.8683   -7.4802  -12.3304 C.2         1 OZZ       0.0592
     27 C27        33.3401   -8.6736  -12.6709 C.2         1 OZZ      -0.0116
     28 C28        32.0451   -8.7424  -13.1227 C.2         1 OZZ       0.0683
     29 C29        31.8941   -6.4133  -12.9490 C.2         1 OZZ       0.0592
     30 C30        31.3221   -7.5899  -13.2689 C.2         1 OZZ      -0.0116
     31 O31        31.5531   -9.8256  -13.4162 O.2         1 OZZ      -0.4519
     32 H1         36.3606   -3.2720  -11.3664 H           1 OZZ       0.0667
     33 H2         35.7395   -5.4899  -11.6575 H           1 OZZ       0.0678
     34 H3         32.8329   -4.5667  -11.4896 H           1 OZZ       0.0999
     35 H4         34.0203   -2.2513  -12.8063 H           1 OZZ       0.0749
     36 H5         35.6983   -3.4342  -14.6819 H           1 OZZ       0.0477
     37 H6         35.0074   -2.8842   -9.5787 H           1 OZZ       0.2102
     38 H7         33.9365   -4.8018   -9.5675 H           1 OZZ       0.2101
     39 H8         36.6951   -1.3968  -12.8910 H           1 OZZ       0.0470
     40 H9         37.3172   -1.7064  -15.6970 H           1 OZZ       0.0643
     41 H10        38.3752   -2.6823  -14.6714 H           1 OZZ       0.0643
     42 H11        38.0101    0.2382  -14.5388 H           1 OZZ       0.1867
     43 H12        42.1403    4.1208  -13.3215 H           1 OZZ       0.1086
     44 H13        41.5596    0.0887  -12.2833 H           1 OZZ       0.1563
     45 H14        39.6764    2.2376  -16.5524 H           1 OZZ       0.3540
     46 H15        39.5898    4.4740  -15.0530 H           1 OZZ       0.3497
     47 H16        34.7984   -7.4687  -11.9967 H           1 OZZ       0.1185
     48 H17        33.8886   -9.5003  -12.5851 H           1 OZZ       0.0387
     49 H18        31.3470   -5.5889  -13.0691 H           1 OZZ       0.1185
     50 H19        30.3878   -7.6208  -13.6072 H           1 OZZ       0.0387
@<TRIPOS>BOND
     1     1     2   1
     2     1     5   1
     3     1     8   1
     4     2     3   1
     5     2     9   1
     6     3     4   1
     7     3     7   1
     8     4     5   1
     9     5     6   1
    10     6    10   2
    11     7    26   1
    12     7    29   1
    13    10    11   1
    14    11    12   1
    15    12    13  am
    16    13    14   1
    17    13    23   2
    18    14    15  ar
    19    14    19  ar
    20    15    16  ar
    21    15    21   1
    22    16    17  ar
    23    16    22   1
    24    17    18  ar
    25    18    19  ar
    26    18    20   1
    27    20    24   2
    28    20    25   2
    29    26    27   2
    30    27    28   1
    31    28    30   1
    32    28    31   2
    33    29    30   2
    34     1    32   1
    35     2    33   1
    36     3    34   1
    37     5    35   1
    38     6    36   1
    39     8    37   1
    40     9    38   1
    41    10    39   1
    42    11    40   1
    43    11    41   1
    44    12    42   1
    45    17    43   1
    46    19    44   1
    47    21    45   1
    48    22    46   1
    49    26    47   1
    50    27    48   1
    51    29    49   1
    52    30    50   1
@<TRIPOS>SUBSTRUCTURE
     1  OZZ      1

