@<TRIPOS>MOLECULE
3ozt_ligand_079
    50    52
SMALL
GAST_HUCK
****
This file was generated by PARSER (from files_GN.cpp)

@<TRIPOS>ATOM
      1 C1         35.5170   -1.7338  -13.9322 C.3         1 OZZ       0.1189
      2 C2         34.6801   -0.4598  -14.1339 C.3         1 OZZ       0.1403
      3 C3         34.5513    0.0943  -12.6981 C.3         1 OZZ       0.2027
      4 O4         35.7324   -0.3340  -11.9893 O.3         1 OZZ      -0.3296
      5 C5         36.3985   -1.3804  -12.7122 C.3         1 OZZ       0.1082
      6 C6         37.7652   -0.9848  -13.0371 C.2         1 OZZ      -0.0658
      7 N7         34.3580    1.5059  -12.6456 N.pl3       1 OZZ      -0.2105
      8 O8         34.6914   -2.8693  -13.6564 O.3         1 OZZ      -0.3846
      9 O9         33.4378   -0.7529  -14.7746 O.3         1 OZZ      -0.3834
     10 C10        38.1019    0.0251  -13.8577 C.2         1 OZZ      -0.0744
     11 C11        39.4779    0.4105  -14.0984 C.3         1 OZZ       0.0473
     12 N12        39.5859    1.5499  -14.9644 N.am        1 OZZ      -0.2765
     13 C13        40.3358    2.6347  -14.7824 C.2         1 OZZ       0.2411
     14 C14        40.2571    3.7114  -15.6587 C.ar        1 OZZ       0.2482
     15 C15        40.4085    3.5485  -17.0585 C.ar        1 OZZ       0.3921
     16 C16        40.3615    4.6648  -17.9163 C.ar        1 OZZ       0.3797
     17 C17        40.1141    5.9459  -17.3934 C.ar        1 OZZ       0.1691
     18 C18        39.9530    6.1554  -16.0042 C.ar        1 OZZ       0.2168
     19 C19        40.0424    5.0211  -15.1552 C.ar        1 OZZ       0.1162
     20 N20        39.7280    7.4095  -15.5112 N.2         1 OZZ      -0.1404
     21 O21        40.6763    2.3338  -17.5996 O.3         1 OZZ      -0.1763
     22 O22        40.5852    4.5133  -19.2457 O.3         1 OZZ      -0.1825
     23 O23        41.1040    2.7190  -13.8299 O.2         1 OZZ      -0.3823
     24 O24        39.6273    8.4591  -16.2850 O.2         1 OZZ      -0.4541
     25 O25        39.6052    7.6348  -14.3349 O.2         1 OZZ      -0.4541
     26 C26        33.1162    2.0162  -12.6774 C.2         1 OZZ       0.0592
     27 C27        32.9071    3.3465  -12.7552 C.2         1 OZZ      -0.0116
     28 C28        33.9851    4.1882  -12.8174 C.2         1 OZZ       0.0683
     29 C29        35.4123    2.3427  -12.6637 C.2         1 OZZ       0.0592
     30 C30        35.2498    3.6767  -12.7555 C.2         1 OZZ      -0.0116
     31 O31        33.8244    5.3918  -12.9495 O.2         1 OZZ      -0.4519
     32 H1         36.1067   -1.9643  -14.8249 H           1 OZZ       0.0667
     33 H2         35.2213    0.2467  -14.7602 H           1 OZZ       0.0678
     34 H3         33.7205   -0.4298  -12.2109 H           1 OZZ       0.0999
     35 H4         36.4487   -2.2445  -12.0432 H           1 OZZ       0.0749
     36 H5         38.5041   -1.5002  -12.6155 H           1 OZZ       0.0477
     37 H6         34.1158   -2.6035  -12.9078 H           1 OZZ       0.2102
     38 H7         32.9685    0.0924  -14.9296 H           1 OZZ       0.2101
     39 H8         37.3952    0.5262  -14.3261 H           1 OZZ       0.0470
     40 H9         39.9969   -0.4228  -14.5748 H           1 OZZ       0.0643
     41 H10        39.9590    0.5980  -13.1347 H           1 OZZ       0.0643
     42 H11        39.0244    1.5424  -15.7541 H           1 OZZ       0.1867
     43 H12        40.0650    6.7343  -18.0441 H           1 OZZ       0.1086
     44 H13        39.9269    5.1509  -14.1465 H           1 OZZ       0.1563
     45 H14        41.6519    2.3061  -17.6968 H           1 OZZ       0.3540
     46 H15        41.3279    5.1220  -19.4486 H           1 OZZ       0.3497
     47 H16        32.3172    1.4224  -12.6497 H           1 OZZ       0.1185
     48 H17        31.9811    3.7104  -12.7705 H           1 OZZ       0.0387
     49 H18        36.3441    2.0020  -12.6111 H           1 OZZ       0.1185
     50 H19        36.0434    4.2776  -12.7942 H           1 OZZ       0.0387
@<TRIPOS>BOND
     1     1     2   1
     2     1     5   1
     3     1     8   1
     4     2     3   1
     5     2     9   1
     6     3     4   1
     7     3     7   1
     8     4     5   1
     9     5     6   1
    10     6    10   2
    11     7    26   1
    12     7    29   1
    13    10    11   1
    14    11    12   1
    15    12    13  am
    16    13    14   1
    17    13    23   2
    18    14    15  ar
    19    14    19  ar
    20    15    16  ar
    21    15    21   1
    22    16    17  ar
    23    16    22   1
    24    17    18  ar
    25    18    19  ar
    26    18    20   1
    27    20    24   2
    28    20    25   2
    29    26    27   2
    30    27    28   1
    31    28    30   1
    32    28    31   2
    33    29    30   2
    34     1    32   1
    35     2    33   1
    36     3    34   1
    37     5    35   1
    38     6    36   1
    39     8    37   1
    40     9    38   1
    41    10    39   1
    42    11    40   1
    43    11    41   1
    44    12    42   1
    45    17    43   1
    46    19    44   1
    47    21    45   1
    48    22    46   1
    49    26    47   1
    50    27    48   1
    51    29    49   1
    52    30    50   1
@<TRIPOS>SUBSTRUCTURE
     1  OZZ      1

