@<TRIPOS>MOLECULE
3ozt_ligand_026
    50    52
SMALL
GAST_HUCK
****
This file was generated by PARSER (from files_GN.cpp)

@<TRIPOS>ATOM
      1 C1         40.8090   -6.1902   -4.1430 C.3         1 OZZ       0.1189
      2 C2         41.5792   -5.8702   -5.4335 C.3         1 OZZ       0.1403
      3 C3         42.3533   -7.1807   -5.6947 C.3         1 OZZ       0.2027
      4 O4         41.5823   -8.2554   -5.1108 O.3         1 OZZ      -0.3296
      5 C5         40.5397   -7.7096   -4.2790 C.3         1 OZZ       0.1082
      6 C6         39.2609   -8.0274   -4.8974 C.2         1 OZZ      -0.0658
      7 N7         42.6422   -7.4185   -7.0695 N.pl3       1 OZZ      -0.2105
      8 O8         41.6070   -5.9326   -2.9831 O.3         1 OZZ      -0.3846
      9 O9         42.4350   -4.7254   -5.3401 O.3         1 OZZ      -0.3834
     10 C10        38.1714   -8.4489   -4.2350 C.2         1 OZZ      -0.0744
     11 C11        36.9252   -8.8073   -4.9055 C.3         1 OZZ       0.0473
     12 N12        36.5188   -7.9125   -5.9552 N.am        1 OZZ      -0.2765
     13 C13        36.2241   -6.6179   -5.8422 C.2         1 OZZ       0.2411
     14 C14        35.9362   -5.8301   -6.9589 C.ar        1 OZZ       0.2482
     15 C15        35.1363   -6.2969   -8.0339 C.ar        1 OZZ       0.3921
     16 C16        34.8194   -5.4505   -9.1145 C.ar        1 OZZ       0.3797
     17 C17        35.3108   -4.1351   -9.1456 C.ar        1 OZZ       0.1691
     18 C18        36.1315   -3.6312   -8.1108 C.ar        1 OZZ       0.2168
     19 C19        36.4290   -4.5011   -7.0315 C.ar        1 OZZ       0.1162
     20 N20        36.6088   -2.3541   -8.1599 N.2         1 OZZ      -0.1404
     21 O21        34.5547   -7.5238   -8.0055 O.3         1 OZZ      -0.1763
     22 O22        34.0037   -5.8808  -10.1130 O.3         1 OZZ      -0.1825
     23 O23        36.2767   -6.0930   -4.7368 O.2         1 OZZ      -0.3823
     24 O24        36.3439   -1.5437   -9.1496 O.2         1 OZZ      -0.4541
     25 O25        37.3084   -1.8867   -7.3024 O.2         1 OZZ      -0.4541
     26 C26        41.7081   -7.9658   -7.8669 C.2         1 OZZ       0.0592
     27 C27        41.9549   -8.2320   -9.1661 C.2         1 OZZ      -0.0116
     28 C28        43.1758   -7.9253   -9.6811 C.2         1 OZZ       0.0683
     29 C29        43.8365   -7.0969   -7.5911 C.2         1 OZZ       0.0592
     30 C30        44.1268   -7.3409   -8.8894 C.2         1 OZZ      -0.0116
     31 O31        43.4413   -8.2603  -10.8291 O.2         1 OZZ      -0.4519
     32 H1         39.8894   -5.6011   -4.0704 H           1 OZZ       0.0667
     33 H2         40.8580   -5.6767   -6.2324 H           1 OZZ       0.0678
     34 H3         43.2709   -7.1429   -5.0901 H           1 OZZ       0.0999
     35 H4         40.6084   -8.1868   -3.2944 H           1 OZZ       0.0749
     36 H5         39.1797   -7.8885   -5.8779 H           1 OZZ       0.0477
     37 H6         41.5546   -4.9646   -2.8410 H           1 OZZ       0.2102
     38 H7         43.0409   -4.9073   -4.5923 H           1 OZZ       0.2101
     39 H8         38.2106   -8.5402   -3.2452 H           1 OZZ       0.0470
     40 H9         36.1191   -8.8808   -4.1721 H           1 OZZ       0.0643
     41 H10        37.0569   -9.7923   -5.3500 H           1 OZZ       0.0643
     42 H11        36.5060   -8.2879   -6.8511 H           1 OZZ       0.1867
     43 H12        35.0629   -3.5422   -9.9420 H           1 OZZ       0.1086
     44 H13        37.0208   -4.1490   -6.2745 H           1 OZZ       0.1563
     45 H14        34.9918   -8.0399   -8.7169 H           1 OZZ       0.3540
     46 H15        33.3185   -5.1868  -10.1979 H           1 OZZ       0.3497
     47 H16        40.8107   -8.1996   -7.5175 H           1 OZZ       0.1185
     48 H17        41.2528   -8.6583   -9.7303 H           1 OZZ       0.0387
     49 H18        44.5395   -6.6617   -7.0341 H           1 OZZ       0.1185
     50 H19        45.0200   -7.1019   -9.2559 H           1 OZZ       0.0387
@<TRIPOS>BOND
     1     1     2   1
     2     1     5   1
     3     1     8   1
     4     2     3   1
     5     2     9   1
     6     3     4   1
     7     3     7   1
     8     4     5   1
     9     5     6   1
    10     6    10   2
    11     7    26   1
    12     7    29   1
    13    10    11   1
    14    11    12   1
    15    12    13  am
    16    13    14   1
    17    13    23   2
    18    14    15  ar
    19    14    19  ar
    20    15    16  ar
    21    15    21   1
    22    16    17  ar
    23    16    22   1
    24    17    18  ar
    25    18    19  ar
    26    18    20   1
    27    20    24   2
    28    20    25   2
    29    26    27   2
    30    27    28   1
    31    28    30   1
    32    28    31   2
    33    29    30   2
    34     1    32   1
    35     2    33   1
    36     3    34   1
    37     5    35   1
    38     6    36   1
    39     8    37   1
    40     9    38   1
    41    10    39   1
    42    11    40   1
    43    11    41   1
    44    12    42   1
    45    17    43   1
    46    19    44   1
    47    21    45   1
    48    22    46   1
    49    26    47   1
    50    27    48   1
    51    29    49   1
    52    30    50   1
@<TRIPOS>SUBSTRUCTURE
     1  OZZ      1

