@<TRIPOS>MOLECULE
3ozt_ligand_072
    50    52
SMALL
GAST_HUCK
****
This file was generated by PARSER (from files_GN.cpp)

@<TRIPOS>ATOM
      1 C1         40.7600   -4.3821  -13.1768 C.3         1 OZZ       0.1189
      2 C2         41.8780   -3.9497  -14.1353 C.3         1 OZZ       0.1403
      3 C3         41.3352   -2.6076  -14.6966 C.3         1 OZZ       0.2027
      4 O4         39.8960   -2.6600  -14.5956 O.3         1 OZZ      -0.3296
      5 C5         39.5040   -3.8556  -13.9056 C.3         1 OZZ       0.1082
      6 C6         38.3826   -3.5573  -13.0318 C.2         1 OZZ      -0.0658
      7 N7         41.8740   -1.4595  -14.0290 N.pl3       1 OZZ      -0.2105
      8 O8         40.7192   -5.7880  -12.9423 O.3         1 OZZ      -0.3846
      9 O9         42.0597   -4.9027  -15.1905 O.3         1 OZZ      -0.3834
     10 C10        37.1155   -3.4327  -13.4737 C.2         1 OZZ      -0.0744
     11 C11        36.0285   -2.9659  -12.6257 C.3         1 OZZ       0.0473
     12 N12        35.8755   -3.7644  -11.4406 N.am        1 OZZ      -0.2765
     13 C13        35.5102   -3.3317  -10.2412 C.2         1 OZZ       0.2411
     14 C14        35.6123   -4.1790   -9.1490 C.ar        1 OZZ       0.2482
     15 C15        34.9984   -5.4569   -9.1337 C.ar        1 OZZ       0.3921
     16 C16        35.1663   -6.3074   -8.0201 C.ar        1 OZZ       0.3797
     17 C17        35.9417   -5.8929   -6.9249 C.ar        1 OZZ       0.1691
     18 C18        36.5624   -4.6209   -6.9017 C.ar        1 OZZ       0.2168
     19 C19        36.3680   -3.7796   -8.0243 C.ar        1 OZZ       0.1162
     20 N20        37.3148   -4.2354   -5.8332 N.2         1 OZZ      -0.1404
     21 O21        34.1952   -5.8715  -10.1481 O.3         1 OZZ      -0.1763
     22 O22        34.5765   -7.5304   -7.9668 O.3         1 OZZ      -0.1825
     23 O23        35.2099   -2.1590  -10.0549 O.2         1 OZZ      -0.3823
     24 O24        37.4857   -4.9923   -4.7795 O.2         1 OZZ      -0.4541
     25 O25        37.8673   -3.1665   -5.7828 O.2         1 OZZ      -0.4541
     26 C26        41.3407   -1.0151  -12.8768 C.2         1 OZZ       0.0592
     27 C27        41.8642    0.0426  -12.2194 C.2         1 OZZ      -0.0116
     28 C28        42.9680    0.6591  -12.7325 C.2         1 OZZ       0.0683
     29 C29        42.9706   -0.8569  -14.5182 C.2         1 OZZ       0.0592
     30 C30        43.5283    0.2010  -13.8914 C.2         1 OZZ      -0.0116
     31 O31        43.4504    1.6266  -12.1600 O.2         1 OZZ      -0.4519
     32 H1         40.9069   -3.8875  -12.2122 H           1 OZZ       0.0667
     33 H2         42.8329   -3.8236  -13.6130 H           1 OZZ       0.0678
     34 H3         41.5524   -2.5667  -15.7737 H           1 OZZ       0.0999
     35 H4         39.2107   -4.5932  -14.6574 H           1 OZZ       0.0749
     36 H5         38.5616   -3.3714  -12.0736 H           1 OZZ       0.0477
     37 H6         41.5681   -5.9989  -12.4963 H           1 OZZ       0.2102
     38 H7         42.3571   -5.7285  -14.7523 H           1 OZZ       0.2101
     39 H8         36.9168   -3.6067  -14.4365 H           1 OZZ       0.0470
     40 H9         35.0877   -3.0001  -13.1862 H           1 OZZ       0.0643
     41 H10        36.2392   -1.9200  -12.3762 H           1 OZZ       0.0643
     42 H11        36.2181   -4.6710  -11.4840 H           1 OZZ       0.1867
     43 H12        36.0416   -6.5358   -6.1340 H           1 OZZ       0.1086
     44 H13        36.8147   -2.8619   -8.0298 H           1 OZZ       0.1563
     45 H14        33.5115   -5.1732  -10.2074 H           1 OZZ       0.3540
     46 H15        34.9118   -7.9941   -8.7610 H           1 OZZ       0.3497
     47 H16        40.5312   -1.4386  -12.4873 H           1 OZZ       0.1185
     48 H17        41.4439    0.3662  -11.3790 H           1 OZZ       0.0387
     49 H18        43.4070   -1.1848  -15.3510 H           1 OZZ       0.1185
     50 H19        44.3401    0.6321  -14.2692 H           1 OZZ       0.0387
@<TRIPOS>BOND
     1     1     2   1
     2     1     5   1
     3     1     8   1
     4     2     3   1
     5     2     9   1
     6     3     4   1
     7     3     7   1
     8     4     5   1
     9     5     6   1
    10     6    10   2
    11     7    26   1
    12     7    29   1
    13    10    11   1
    14    11    12   1
    15    12    13  am
    16    13    14   1
    17    13    23   2
    18    14    15  ar
    19    14    19  ar
    20    15    16  ar
    21    15    21   1
    22    16    17  ar
    23    16    22   1
    24    17    18  ar
    25    18    19  ar
    26    18    20   1
    27    20    24   2
    28    20    25   2
    29    26    27   2
    30    27    28   1
    31    28    30   1
    32    28    31   2
    33    29    30   2
    34     1    32   1
    35     2    33   1
    36     3    34   1
    37     5    35   1
    38     6    36   1
    39     8    37   1
    40     9    38   1
    41    10    39   1
    42    11    40   1
    43    11    41   1
    44    12    42   1
    45    17    43   1
    46    19    44   1
    47    21    45   1
    48    22    46   1
    49    26    47   1
    50    27    48   1
    51    29    49   1
    52    30    50   1
@<TRIPOS>SUBSTRUCTURE
     1  OZZ      1

