@<TRIPOS>MOLECULE
3ozt_ligand_068
    50    52
SMALL
GAST_HUCK
****
This file was generated by PARSER (from files_GN.cpp)

@<TRIPOS>ATOM
      1 C1         38.9666   -9.0534   -2.0159 C.3         1 OZZ       0.1189
      2 C2         40.3279   -9.7329   -2.2242 C.3         1 OZZ       0.1403
      3 C3         40.0742  -10.5743   -3.4973 C.3         1 OZZ       0.2027
      4 O4         39.1020   -9.8638   -4.2787 O.3         1 OZZ      -0.3296
      5 C5         38.4676   -8.8553   -3.4645 C.3         1 OZZ       0.1082
      6 C6         38.7515   -7.5505   -4.0481 C.2         1 OZZ      -0.0658
      7 N7         41.2400  -10.8545   -4.2700 N.pl3       1 OZZ      -0.2105
      8 O8         38.0740   -9.8993   -1.2958 O.3         1 OZZ      -0.3846
      9 O9         40.7678  -10.5056   -1.1086 O.3         1 OZZ      -0.3834
     10 C10        38.0335   -7.0341   -5.0607 C.2         1 OZZ      -0.0744
     11 C11        38.1968   -5.6652   -5.5143 C.3         1 OZZ       0.0473
     12 N12        37.4658   -5.3425   -6.7078 N.am        1 OZZ      -0.2765
     13 C13        36.1577   -5.4513   -6.8830 C.2         1 OZZ       0.2411
     14 C14        35.6120   -5.1778   -8.1309 C.ar        1 OZZ       0.2482
     15 C15        34.8438   -6.1436   -8.8269 C.ar        1 OZZ       0.3921
     16 C16        34.3899   -5.8662  -10.1314 C.ar        1 OZZ       0.3797
     17 C17        34.6425   -4.6150  -10.7212 C.ar        1 OZZ       0.1691
     18 C18        35.3424   -3.6019  -10.0258 C.ar        1 OZZ       0.2168
     19 C19        35.8512   -3.9218   -8.7420 C.ar        1 OZZ       0.1162
     20 N20        35.5162   -2.3633  -10.5756 N.2         1 OZZ      -0.1404
     21 O21        34.5665   -7.3524   -8.2664 O.3         1 OZZ      -0.1763
     22 O22        33.7117   -6.8047  -10.8409 O.3         1 OZZ      -0.1825
     23 O23        35.4269   -5.8986   -6.0080 O.2         1 OZZ      -0.3823
     24 O24        35.0312   -2.0383  -11.7445 O.2         1 OZZ      -0.4541
     25 O25        36.0807   -1.4681  -10.0017 O.2         1 OZZ      -0.4541
     26 C26        41.6356  -12.1234   -4.4803 C.2         1 OZZ       0.0592
     27 C27        42.7326  -12.4025   -5.2206 C.2         1 OZZ      -0.0116
     28 C28        43.4511  -11.3691   -5.7557 C.2         1 OZZ       0.0683
     29 C29        41.9292   -9.8479   -4.8333 C.2         1 OZZ       0.0592
     30 C30        43.0406  -10.0797   -5.5660 C.2         1 OZZ      -0.0116
     31 O31        44.4685  -11.5991   -6.4010 O.2         1 OZZ      -0.4519
     32 H1         39.0737   -8.1189   -1.4554 H           1 OZZ       0.0667
     33 H2         41.0765   -8.9615   -2.4053 H           1 OZZ       0.0678
     34 H3         39.5729  -11.4968   -3.1717 H           1 OZZ       0.0999
     35 H4         37.3844   -9.0143   -3.4946 H           1 OZZ       0.0749
     36 H5         39.4828   -6.9945   -3.6563 H           1 OZZ       0.0477
     37 H6         37.1893   -9.4872   -1.4019 H           1 OZZ       0.2102
     38 H7         40.0257  -11.1027   -0.8856 H           1 OZZ       0.2101
     39 H8         37.3180   -7.5988   -5.4658 H           1 OZZ       0.0470
     40 H9         39.2580   -5.4939   -5.7173 H           1 OZZ       0.0643
     41 H10        37.8894   -4.9707   -4.7253 H           1 OZZ       0.0643
     42 H11        37.9890   -5.0296   -7.4597 H           1 OZZ       0.1867
     43 H12        34.2762   -4.4421  -11.6588 H           1 OZZ       0.1086
     44 H13        36.3812   -3.2137   -8.2225 H           1 OZZ       0.1563
     45 H14        35.0073   -8.0055   -8.8386 H           1 OZZ       0.3540
     46 H15        32.9455   -7.0522  -10.2758 H           1 OZZ       0.3497
     47 H16        41.1313  -12.8905   -4.1026 H           1 OZZ       0.1185
     48 H17        43.0079  -13.3446   -5.3709 H           1 OZZ       0.0387
     49 H18        41.6356   -8.9042   -4.7287 H           1 OZZ       0.1185
     50 H19        43.5406   -9.3197   -5.9670 H           1 OZZ       0.0387
@<TRIPOS>BOND
     1     1     2   1
     2     1     5   1
     3     1     8   1
     4     2     3   1
     5     2     9   1
     6     3     4   1
     7     3     7   1
     8     4     5   1
     9     5     6   1
    10     6    10   2
    11     7    26   1
    12     7    29   1
    13    10    11   1
    14    11    12   1
    15    12    13  am
    16    13    14   1
    17    13    23   2
    18    14    15  ar
    19    14    19  ar
    20    15    16  ar
    21    15    21   1
    22    16    17  ar
    23    16    22   1
    24    17    18  ar
    25    18    19  ar
    26    18    20   1
    27    20    24   2
    28    20    25   2
    29    26    27   2
    30    27    28   1
    31    28    30   1
    32    28    31   2
    33    29    30   2
    34     1    32   1
    35     2    33   1
    36     3    34   1
    37     5    35   1
    38     6    36   1
    39     8    37   1
    40     9    38   1
    41    10    39   1
    42    11    40   1
    43    11    41   1
    44    12    42   1
    45    17    43   1
    46    19    44   1
    47    21    45   1
    48    22    46   1
    49    26    47   1
    50    27    48   1
    51    29    49   1
    52    30    50   1
@<TRIPOS>SUBSTRUCTURE
     1  OZZ      1

