@<TRIPOS>MOLECULE
3ozt_ligand_019
    50    52
SMALL
GAST_HUCK
****
This file was generated by PARSER (from files_GN.cpp)

@<TRIPOS>ATOM
      1 C1         40.5974   -3.8621  -11.0910 C.3         1 OZZ       0.1189
      2 C2         40.5863   -3.5813   -9.5776 C.3         1 OZZ       0.1403
      3 C3         40.5105   -2.0327   -9.5200 C.3         1 OZZ       0.2027
      4 O4         39.9083   -1.5864  -10.7451 O.3         1 OZZ      -0.3296
      5 C5         39.7731   -2.6859  -11.6600 C.3         1 OZZ       0.1082
      6 C6         38.3465   -2.9646  -11.8119 C.2         1 OZZ      -0.0658
      7 N7         39.8129   -1.4674   -8.4052 N.pl3       1 OZZ      -0.2105
      8 O8         41.9303   -3.8164  -11.6146 O.3         1 OZZ      -0.3846
      9 O9         41.7164   -4.1162   -8.8886 O.3         1 OZZ      -0.3834
     10 C10        37.7664   -3.2639  -12.9873 C.2         1 OZZ      -0.0744
     11 C11        36.3296   -3.3649  -13.1593 C.3         1 OZZ       0.0473
     12 N12        35.7319   -4.4256  -12.4031 N.am        1 OZZ      -0.2765
     13 C13        34.4299   -4.6970  -12.3769 C.2         1 OZZ       0.2411
     14 C14        33.9451   -5.8364  -11.7426 C.ar        1 OZZ       0.2482
     15 C15        34.2734   -6.1486  -10.4018 C.ar        1 OZZ       0.3921
     16 C16        33.7814   -7.3251   -9.8028 C.ar        1 OZZ       0.3797
     17 C17        32.9627   -8.2005  -10.5373 C.ar        1 OZZ       0.1691
     18 C18        32.5962   -7.9178  -11.8753 C.ar        1 OZZ       0.2168
     19 C19        33.0952   -6.7238  -12.4507 C.ar        1 OZZ       0.1162
     20 N20        31.7792   -8.7612  -12.5710 N.2         1 OZZ      -0.1404
     21 O21        34.9603   -5.2794   -9.6182 O.3         1 OZZ      -0.1763
     22 O22        34.0591   -7.6094   -8.5052 O.3         1 OZZ      -0.1825
     23 O23        33.6442   -4.0068  -13.0178 O.2         1 OZZ      -0.3823
     24 O24        31.3546   -9.8912  -12.0676 O.2         1 OZZ      -0.4541
     25 O25        31.4088   -8.5448  -13.6951 O.2         1 OZZ      -0.4541
     26 C26        38.5710   -1.8722   -8.0832 C.2         1 OZZ       0.0592
     27 C27        37.9177   -1.3762   -7.0063 C.2         1 OZZ      -0.0116
     28 C28        38.5152   -0.3947   -6.2680 C.2         1 OZZ       0.0683
     29 C29        40.3622   -0.4539   -7.7142 C.2         1 OZZ       0.0592
     30 C30        39.7388    0.0909   -6.6477 C.2         1 OZZ      -0.0116
     31 O31        37.9495    0.0607   -5.2839 O.2         1 OZZ      -0.4519
     32 H1         40.1619   -4.8374  -11.3386 H           1 OZZ       0.0667
     33 H2         39.6969   -4.0250   -9.1321 H           1 OZZ       0.0678
     34 H3         41.5472   -1.6759   -9.5708 H           1 OZZ       0.0999
     35 H4         40.2052   -2.3672  -12.6161 H           1 OZZ       0.0749
     36 H5         37.7715   -2.8933  -11.0063 H           1 OZZ       0.0477
     37 H6         42.3378   -4.6827  -11.3923 H           1 OZZ       0.2102
     38 H7         42.5012   -3.7103   -9.3157 H           1 OZZ       0.2101
     39 H8         38.3427   -3.3679  -13.7923 H           1 OZZ       0.0470
     40 H9         36.1186   -3.5218  -14.2223 H           1 OZZ       0.0643
     41 H10        35.8704   -2.4142  -12.8712 H           1 OZZ       0.0643
     42 H11        36.3290   -5.0204  -11.9115 H           1 OZZ       0.1867
     43 H12        32.6088   -9.0442  -10.0717 H           1 OZZ       0.1086
     44 H13        32.8450   -6.5058  -13.4157 H           1 OZZ       0.1563
     45 H14        34.3461   -4.5292   -9.4994 H           1 OZZ       0.3540
     46 H15        35.0219   -7.4581   -8.4069 H           1 OZZ       0.3497
     47 H16        38.0846   -2.5381   -8.6302 H           1 OZZ       0.1185
     48 H17        36.9976   -1.6972   -6.7930 H           1 OZZ       0.0387
     49 H18        41.2298   -0.0508   -7.9918 H           1 OZZ       0.1185
     50 H19        40.1546    0.8507   -6.1564 H           1 OZZ       0.0387
@<TRIPOS>BOND
     1     1     2   1
     2     1     5   1
     3     1     8   1
     4     2     3   1
     5     2     9   1
     6     3     4   1
     7     3     7   1
     8     4     5   1
     9     5     6   1
    10     6    10   2
    11     7    26   1
    12     7    29   1
    13    10    11   1
    14    11    12   1
    15    12    13  am
    16    13    14   1
    17    13    23   2
    18    14    15  ar
    19    14    19  ar
    20    15    16  ar
    21    15    21   1
    22    16    17  ar
    23    16    22   1
    24    17    18  ar
    25    18    19  ar
    26    18    20   1
    27    20    24   2
    28    20    25   2
    29    26    27   2
    30    27    28   1
    31    28    30   1
    32    28    31   2
    33    29    30   2
    34     1    32   1
    35     2    33   1
    36     3    34   1
    37     5    35   1
    38     6    36   1
    39     8    37   1
    40     9    38   1
    41    10    39   1
    42    11    40   1
    43    11    41   1
    44    12    42   1
    45    17    43   1
    46    19    44   1
    47    21    45   1
    48    22    46   1
    49    26    47   1
    50    27    48   1
    51    29    49   1
    52    30    50   1
@<TRIPOS>SUBSTRUCTURE
     1  OZZ      1

