@<TRIPOS>MOLECULE
3ozt_ligand_048
    50    52
SMALL
GAST_HUCK
****
This file was generated by PARSER (from files_GN.cpp)

@<TRIPOS>ATOM
      1 C1         40.2607   -0.7186  -12.6728 C.3         1 OZZ       0.1189
      2 C2         41.1022   -1.0971  -13.8970 C.3         1 OZZ       0.1403
      3 C3         41.3141   -2.6280  -13.7430 C.3         1 OZZ       0.2027
      4 O4         40.2514   -3.0807  -12.8693 O.3         1 OZZ      -0.3296
      5 C5         39.3962   -1.9878  -12.4936 C.3         1 OZZ       0.1082
      6 C6         38.1767   -1.9967  -13.2944 C.2         1 OZZ      -0.0658
      7 N7         41.4429   -3.3547  -14.9697 N.pl3       1 OZZ      -0.2105
      8 O8         41.0732   -0.4963  -11.5159 O.3         1 OZZ      -0.3846
      9 O9         42.3169   -0.3489  -13.9593 O.3         1 OZZ      -0.3834
     10 C10        37.2414   -2.9559  -13.2007 C.2         1 OZZ      -0.0744
     11 C11        35.9881   -2.9071  -13.9379 C.3         1 OZZ       0.0473
     12 N12        35.3309   -1.6317  -13.8917 N.am        1 OZZ      -0.2765
     13 C13        34.8698   -0.9775  -12.8301 C.2         1 OZZ       0.2411
     14 C14        34.3765    0.3295  -12.9430 C.ar        1 OZZ       0.2482
     15 C15        33.7263    0.7979  -14.1146 C.ar        1 OZZ       0.3921
     16 C16        33.2737    2.1283  -14.2169 C.ar        1 OZZ       0.3797
     17 C17        33.4365    3.0034  -13.1284 C.ar        1 OZZ       0.1691
     18 C18        34.0565    2.5793  -11.9288 C.ar        1 OZZ       0.2168
     19 C19        34.5316    1.2439  -11.8701 C.ar        1 OZZ       0.1162
     20 N20        34.1804    3.4299  -10.8672 N.2         1 OZZ      -0.1404
     21 O21        33.4859   -0.0363  -15.1552 O.3         1 OZZ      -0.1763
     22 O22        32.6390    2.5503  -15.3461 O.3         1 OZZ      -0.1825
     23 O23        34.9567   -1.5022  -11.7254 O.2         1 OZZ      -0.3823
     24 O24        33.8006    4.6807  -10.9194 O.2         1 OZZ      -0.4541
     25 O25        34.6480    3.0857   -9.8127 O.2         1 OZZ      -0.4541
     26 C26        42.3551   -2.9627  -15.8816 C.2         1 OZZ       0.0592
     27 C27        42.5612   -3.6567  -17.0207 C.2         1 OZZ      -0.0116
     28 C28        41.8495   -4.8027  -17.2380 C.2         1 OZZ       0.0683
     29 C29        40.7683   -4.5009  -15.1797 C.2         1 OZZ       0.0592
     30 C30        40.9641   -5.2405  -16.2927 C.2         1 OZZ      -0.0116
     31 O31        42.0441   -5.4645  -18.2484 O.2         1 OZZ      -0.4519
     32 H1         39.6659    0.1850  -12.8498 H           1 OZZ       0.0667
     33 H2         40.5238   -0.8881  -14.8002 H           1 OZZ       0.0678
     34 H3         42.2356   -2.7821  -13.1702 H           1 OZZ       0.0999
     35 H4         39.1213   -2.0970  -11.4397 H           1 OZZ       0.0749
     36 H5         37.9996   -1.2226  -13.8892 H           1 OZZ       0.0477
     37 H6         41.5933    0.3149  -11.7112 H           1 OZZ       0.2102
     38 H7         42.0362    0.5863  -14.0660 H           1 OZZ       0.2101
     39 H8         37.3941   -3.7194  -12.5800 H           1 OZZ       0.0470
     40 H9         35.3071   -3.6862  -13.5795 H           1 OZZ       0.0643
     41 H10        36.2116   -3.1251  -14.9836 H           1 OZZ       0.0643
     42 H11        35.2440   -1.1912  -14.7498 H           1 OZZ       0.1867
     43 H12        33.0624    3.9513  -13.2104 H           1 OZZ       0.1086
     44 H13        35.0186    0.9356  -11.0250 H           1 OZZ       0.1563
     45 H14        32.5136   -0.0793  -15.2228 H           1 OZZ       0.3540
     46 H15        33.0113    3.4314  -15.5771 H           1 OZZ       0.3497
     47 H16        42.9202   -2.1569  -15.7333 H           1 OZZ       0.1185
     48 H17        43.2513   -3.3560  -17.6718 H           1 OZZ       0.0387
     49 H18        40.1295   -4.8598  -14.5058 H           1 OZZ       0.1185
     50 H19        40.4794   -6.1009  -16.4112 H           1 OZZ       0.0387
@<TRIPOS>BOND
     1     1     2   1
     2     1     5   1
     3     1     8   1
     4     2     3   1
     5     2     9   1
     6     3     4   1
     7     3     7   1
     8     4     5   1
     9     5     6   1
    10     6    10   2
    11     7    26   1
    12     7    29   1
    13    10    11   1
    14    11    12   1
    15    12    13  am
    16    13    14   1
    17    13    23   2
    18    14    15  ar
    19    14    19  ar
    20    15    16  ar
    21    15    21   1
    22    16    17  ar
    23    16    22   1
    24    17    18  ar
    25    18    19  ar
    26    18    20   1
    27    20    24   2
    28    20    25   2
    29    26    27   2
    30    27    28   1
    31    28    30   1
    32    28    31   2
    33    29    30   2
    34     1    32   1
    35     2    33   1
    36     3    34   1
    37     5    35   1
    38     6    36   1
    39     8    37   1
    40     9    38   1
    41    10    39   1
    42    11    40   1
    43    11    41   1
    44    12    42   1
    45    17    43   1
    46    19    44   1
    47    21    45   1
    48    22    46   1
    49    26    47   1
    50    27    48   1
    51    29    49   1
    52    30    50   1
@<TRIPOS>SUBSTRUCTURE
     1  OZZ      1

