@<TRIPOS>MOLECULE
3pe2_ligand_020
    37    40
SMALL
GAST_HUCK
****
This file was generated by PARSER (from files_GN.cpp)

@<TRIPOS>ATOM
      1 N1         18.3958  -30.8053   21.0808 N.ar        1 E1B      -0.2566
      2 C2         17.7360  -30.6861   22.2588 C.ar        1 E1B       0.0922
      3 N3         17.9476  -31.5960   23.2467 N.ar        1 E1B      -0.2517
      4 C4         18.7993  -32.6457   23.0900 C.ar        1 E1B       0.1245
      5 C5         19.5392  -32.7897   21.8771 C.ar        1 E1B       0.0502
      6 C6         19.2780  -31.8191   20.8791 C.ar        1 E1B       0.0434
      7 CAA        16.9251  -29.5095   29.2228 C.1         1 E1B      -0.1140
      8 OAB        24.2794  -37.1703   21.1054 O.co2       1 E1B      -0.5601
      9 OAC        22.3377  -38.4800   21.2012 O.co2       1 E1B      -0.5601
     10 CAD        16.7287  -30.2654   28.3167 C.1         1 E1B      -0.0725
     11 CAE        15.0499  -31.9062   25.5519 C.ar        1 E1B      -0.0695
     12 CAG        15.2768  -31.0527   26.6454 C.ar        1 E1B      -0.0574
     13 CAH        16.0605  -32.7882   25.1291 C.ar        1 E1B      -0.0371
     14 CAI        22.0889  -35.1973   20.4736 C.ar        1 E1B      -0.0469
     15 CAJ        21.2474  -34.0847   20.5719 C.ar        1 E1B      -0.0482
     16 CAL        17.5301  -31.9558   26.8852 C.ar        1 E1B      -0.0223
     17 CAM        21.3777  -35.9288   22.6881 C.ar        1 E1B      -0.0324
     18 NAP        19.8373  -34.6089   23.9344 N.ar        1 E1B      -0.2773
     19 NAQ        18.3340  -33.6077   25.3358 N.pl3       1 E1B      -0.2490
     20 CAR        22.9507  -37.2813   21.3949 C.2         1 E1B       0.0639
     21 CAS        16.5161  -31.0763   27.3298 C.ar        1 E1B       0.0156
     22 CAT        17.3202  -32.8041   25.7758 C.ar        1 E1B       0.0678
     23 CAU        22.1502  -36.1328   21.5219 C.ar        1 E1B       0.0111
     24 CAV        18.9568  -33.5947   24.1354 C.ar        1 E1B       0.1682
     25 CAW        20.5491  -34.7989   22.7921 C.ar        1 E1B       0.0354
     26 CAY        20.4464  -33.8663   21.7221 C.ar        1 E1B       0.0121
     27 H1         17.0737  -29.9217   22.4120 H           1 E1B       0.1131
     28 H2         19.7308  -31.8427   19.9655 H           1 E1B       0.0992
     29 H3         17.0805  -28.9313   29.9217 H           1 E1B       0.1233
     30 H4         14.1723  -31.8621   25.0366 H           1 E1B       0.0590
     31 H5         14.5317  -30.4057   26.9232 H           1 E1B       0.0537
     32 H6         15.8894  -33.4038   24.3218 H           1 E1B       0.0543
     33 H7         22.6329  -35.3337   19.6113 H           1 E1B       0.0637
     34 H8         21.2301  -33.4446   19.7792 H           1 E1B       0.0642
     35 H9         18.4461  -31.9610   27.3496 H           1 E1B       0.0550
     36 H10        21.4212  -36.6039   23.4530 H           1 E1B       0.0650
     37 H11        18.6810  -34.2492   25.9803 H           1 E1B       0.2200
@<TRIPOS>BOND
     1     1     2  ar
     2     6     1  ar
     3     3     2  ar
     4     4     3  ar
     5     5     4  ar
     6    24     4  ar
     7     5     6  ar
     8    26     5  ar
     9    10     7   3
    10    20     8  ar
    11    20     9  ar
    12    21    10   1
    13    11    12  ar
    14    13    11  ar
    15    21    12  ar
    16    22    13  ar
    17    14    15  ar
    18    23    14  ar
    19    15    26  ar
    20    16    21  ar
    21    22    16  ar
    22    23    17  ar
    23    17    25  ar
    24    18    24  ar
    25    25    18  ar
    26    19    22   1
    27    24    19   1
    28    20    23   1
    29    25    26  ar
    30     2    27   1
    31     6    28   1
    32     7    29   1
    33    11    30   1
    34    12    31   1
    35    13    32   1
    36    14    33   1
    37    15    34   1
    38    16    35   1
    39    17    36   1
    40    19    37   1
@<TRIPOS>SUBSTRUCTURE
     1  E1B      2

