@<TRIPOS>MOLECULE
3pe2_ligand_018
    37    40
SMALL
GAST_HUCK
****
This file was generated by PARSER (from files_GN.cpp)

@<TRIPOS>ATOM
      1 N1         21.2840  -19.1530   11.4339 N.ar        1 E1B      -0.2566
      2 C2         21.5148  -20.3624   11.9902 C.ar        1 E1B       0.0922
      3 N3         22.7658  -20.8715   11.9477 N.ar        1 E1B      -0.2517
      4 C4         23.8178  -20.2279   11.3768 C.ar        1 E1B       0.1245
      5 C5         23.6043  -18.9568   10.7684 C.ar        1 E1B       0.0502
      6 C6         22.2774  -18.4564   10.8311 C.ar        1 E1B       0.0434
      7 CAA        21.6567  -26.3126   11.4898 C.1         1 E1B      -0.1140
      8 OAB        28.2552  -15.1086    8.3266 O.co2       1 E1B      -0.5601
      9 OAC        28.8961  -17.2178    7.5849 O.co2       1 E1B      -0.5601
     10 CAD        22.3094  -25.4984   12.0732 C.1         1 E1B      -0.0725
     11 CAE        23.4891  -23.3090   14.7202 C.ar        1 E1B      -0.0695
     12 CAG        22.7512  -24.3059   14.0563 C.ar        1 E1B      -0.0574
     13 CAH        24.4597  -22.5668   14.0242 C.ar        1 E1B      -0.0371
     14 CAI        25.7236  -16.4015    8.9354 C.ar        1 E1B      -0.0469
     15 CAJ        24.6013  -17.0158    9.5182 C.ar        1 E1B      -0.0482
     16 CAL        24.0051  -23.8674   12.0098 C.ar        1 E1B      -0.0223
     17 CAM        27.1104  -18.2740    9.6371 C.ar        1 E1B      -0.0324
     18 NAP        26.1121  -20.1263   10.7644 N.ar        1 E1B      -0.2773
     19 NAQ        25.4941  -21.9928   11.9337 N.pl3       1 E1B      -0.2490
     20 CAR        28.0953  -16.4487    8.3553 C.2         1 E1B       0.0639
     21 CAS        23.0122  -24.5972   12.6995 C.ar        1 E1B       0.0156
     22 CAT        24.7070  -22.8301   12.6593 C.ar        1 E1B       0.0678
     23 CAU        26.9857  -17.0267    8.9890 C.ar        1 E1B       0.0111
     24 CAV        25.1123  -20.8102   11.3761 C.ar        1 E1B       0.1682
     25 CAW        25.9751  -18.9039   10.1912 C.ar        1 E1B       0.0354
     26 CAY        24.6991  -18.2758   10.1590 C.ar        1 E1B       0.0121
     27 H1         20.7639  -20.8868   12.4429 H           1 E1B       0.1131
     28 H2         22.0232  -17.5556   10.4368 H           1 E1B       0.0992
     29 H3         21.1517  -26.9351   11.0359 H           1 E1B       0.1233
     30 H4         23.3004  -23.1023   15.7034 H           1 E1B       0.0590
     31 H5         22.0207  -24.8072   14.5703 H           1 E1B       0.0537
     32 H6         24.9486  -21.8037   14.4984 H           1 E1B       0.0543
     33 H7         25.6085  -15.4990    8.4659 H           1 E1B       0.0637
     34 H8         23.7111  -16.5228    9.4547 H           1 E1B       0.0642
     35 H9         24.1907  -24.0568   11.0217 H           1 E1B       0.0550
     36 H10        28.0237  -18.7360    9.6912 H           1 E1B       0.0650
     37 H11        26.4240  -22.2433   11.8287 H           1 E1B       0.2200
@<TRIPOS>BOND
     1     1     2  ar
     2     6     1  ar
     3     3     2  ar
     4     4     3  ar
     5     5     4  ar
     6    24     4  ar
     7     5     6  ar
     8    26     5  ar
     9    10     7   3
    10    20     8  ar
    11    20     9  ar
    12    21    10   1
    13    11    12  ar
    14    13    11  ar
    15    21    12  ar
    16    22    13  ar
    17    14    15  ar
    18    23    14  ar
    19    15    26  ar
    20    16    21  ar
    21    22    16  ar
    22    23    17  ar
    23    17    25  ar
    24    18    24  ar
    25    25    18  ar
    26    19    22   1
    27    24    19   1
    28    20    23   1
    29    25    26  ar
    30     2    27   1
    31     6    28   1
    32     7    29   1
    33    11    30   1
    34    12    31   1
    35    13    32   1
    36    14    33   1
    37    15    34   1
    38    16    35   1
    39    17    36   1
    40    19    37   1
@<TRIPOS>SUBSTRUCTURE
     1  E1B      2

