@<TRIPOS>MOLECULE
3pe2_ligand_010
    37    40
SMALL
GAST_HUCK
****
This file was generated by PARSER (from files_GN.cpp)

@<TRIPOS>ATOM
      1 N1         22.9855  -26.5400   25.4717 N.ar        1 E1B      -0.2566
      2 C2         23.3657  -25.6869   24.4918 C.ar        1 E1B       0.0922
      3 N3         23.0497  -25.9673   23.2041 N.ar        1 E1B      -0.2517
      4 C4         22.3604  -27.0842   22.8529 C.ar        1 E1B       0.1245
      5 C5         21.9424  -28.0041   23.8577 C.ar        1 E1B       0.0502
      6 C6         22.2875  -27.6681   25.1935 C.ar        1 E1B       0.0434
      7 CAA        18.7462  -25.3726   16.2569 C.1         1 E1B      -0.1140
      8 OAB        17.7297  -32.5046   21.8584 O.co2       1 E1B      -0.5601
      9 OAC        19.5772  -33.8359   22.2661 O.co2       1 E1B      -0.5601
     10 CAD        19.7693  -25.7914   16.7251 C.1         1 E1B      -0.0725
     11 CAE        23.1664  -27.0589   16.9628 C.ar        1 E1B      -0.0695
     12 CAG        21.9334  -26.6705   16.4015 C.ar        1 E1B      -0.0574
     13 CAH        23.3526  -27.0105   18.3565 C.ar        1 E1B      -0.0371
     14 CAI        20.1822  -31.3530   23.9104 C.ar        1 E1B      -0.0469
     15 CAJ        20.8740  -30.2187   24.3645 C.ar        1 E1B      -0.0482
     16 CAL        21.0727  -26.1892   18.6371 C.ar        1 E1B      -0.0223
     17 CAM        20.1037  -30.4176   21.6685 C.ar        1 E1B      -0.0324
     18 NAP        21.2790  -28.4020   21.1949 N.ar        1 E1B      -0.2773
     19 NAQ        22.5271  -26.4872   20.5390 N.pl3       1 E1B      -0.2490
     20 CAR        19.0539  -32.5917   22.1244 C.2         1 E1B       0.0639
     21 CAS        20.8862  -26.2185   17.2389 C.ar        1 E1B       0.0156
     22 CAT        22.3019  -26.5922   19.2053 C.ar        1 E1B       0.0678
     23 CAU        19.7693  -31.4578   22.5627 C.ar        1 E1B       0.0111
     24 CAV        22.0381  -27.3150   21.4988 C.ar        1 E1B       0.1682
     25 CAW        20.8571  -29.3115   22.1065 C.ar        1 E1B       0.0354
     26 CAY        21.2267  -29.1736   23.4745 C.ar        1 E1B       0.0121
     27 H1         23.8864  -24.8386   24.7205 H           1 E1B       0.1131
     28 H2         22.0298  -28.2630   25.9821 H           1 E1B       0.0992
     29 H3         17.9626  -25.0503   15.9000 H           1 E1B       0.1233
     30 H4         23.9294  -27.3684   16.3550 H           1 E1B       0.0590
     31 H5         21.8183  -26.6930   15.3815 H           1 E1B       0.0537
     32 H6         24.2564  -27.2906   18.7464 H           1 E1B       0.0543
     33 H7         19.9561  -32.0939   24.5823 H           1 E1B       0.0637
     34 H8         21.1378  -30.1980   25.3492 H           1 E1B       0.0642
     35 H9         20.3311  -25.8379   19.2557 H           1 E1B       0.0550
     36 H10        19.8428  -30.4855   20.6805 H           1 E1B       0.0650
     37 H11        23.1898  -25.8260   20.8113 H           1 E1B       0.2200
@<TRIPOS>BOND
     1     1     2  ar
     2     6     1  ar
     3     3     2  ar
     4     4     3  ar
     5     5     4  ar
     6    24     4  ar
     7     5     6  ar
     8    26     5  ar
     9    10     7   3
    10    20     8  ar
    11    20     9  ar
    12    21    10   1
    13    11    12  ar
    14    13    11  ar
    15    21    12  ar
    16    22    13  ar
    17    14    15  ar
    18    23    14  ar
    19    15    26  ar
    20    16    21  ar
    21    22    16  ar
    22    23    17  ar
    23    17    25  ar
    24    18    24  ar
    25    25    18  ar
    26    19    22   1
    27    24    19   1
    28    20    23   1
    29    25    26  ar
    30     2    27   1
    31     6    28   1
    32     7    29   1
    33    11    30   1
    34    12    31   1
    35    13    32   1
    36    14    33   1
    37    15    34   1
    38    16    35   1
    39    17    36   1
    40    19    37   1
@<TRIPOS>SUBSTRUCTURE
     1  E1B      2

