@<TRIPOS>MOLECULE
3pe2_ligand_040
    37    40
SMALL
GAST_HUCK
****
This file was generated by PARSER (from files_GN.cpp)

@<TRIPOS>ATOM
      1 N1         18.9985  -33.1643   21.1286 N.ar        1 E1B      -0.2566
      2 C2         20.2057  -33.3596   20.5526 C.ar        1 E1B       0.0922
      3 N3         20.7685  -34.5938   20.6000 N.ar        1 E1B      -0.2517
      4 C4         20.1572  -35.6542   21.1951 C.ar        1 E1B       0.1245
      5 C5         18.8808  -35.4920   21.8028 C.ar        1 E1B       0.0502
      6 C6         18.3425  -34.1790   21.7510 C.ar        1 E1B       0.0434
      7 CAA        22.5577  -42.7846   19.1733 C.1         1 E1B      -0.1140
      8 OAB        15.3681  -40.4744   24.2522 O.co2       1 E1B      -0.5601
      9 OAC        17.4348  -40.5302   25.3311 O.co2       1 E1B      -0.5601
     10 CAD        22.8524  -41.6955   19.5610 C.1         1 E1B      -0.0725
     11 CAE        25.0559  -39.0633   20.7060 C.ar        1 E1B      -0.0695
     12 CAG        24.5915  -40.3220   20.2863 C.ar        1 E1B      -0.0574
     13 CAH        24.1497  -37.9951   20.8261 C.ar        1 E1B      -0.0371
     14 CAI        16.4208  -37.7333   23.6148 C.ar        1 E1B      -0.0469
     15 CAJ        16.9742  -36.5776   23.0383 C.ar        1 E1B      -0.0482
     16 CAL        22.3204  -39.4507   20.1181 C.ar        1 E1B      -0.0223
     17 CAM        18.3705  -39.0275   22.9243 C.ar        1 E1B      -0.0324
     18 NAP        20.1220  -37.9638   21.7581 N.ar        1 E1B      -0.2773
     19 NAQ        21.9976  -37.0645   20.6216 N.pl3       1 E1B      -0.2490
     20 CAR        16.6613  -40.0603   24.3289 C.2         1 E1B       0.0639
     21 CAS        23.2292  -40.5188   19.9894 C.ar        1 E1B       0.0156
     22 CAT        22.7752  -38.1775   20.5370 C.ar        1 E1B       0.0678
     23 CAU        17.1197  -38.9594   23.5778 C.ar        1 E1B       0.0111
     24 CAV        20.7728  -36.9233   21.1835 C.ar        1 E1B       0.1682
     25 CAW        18.9150  -37.8671   22.3480 C.ar        1 E1B       0.0354
     26 CAY        18.2389  -36.6191   22.4039 C.ar        1 E1B       0.0121
     27 H1         20.6816  -32.5919   20.0803 H           1 E1B       0.1131
     28 H2         17.4357  -33.9565   22.1659 H           1 E1B       0.0992
     29 H3         22.3379  -43.6343   18.8745 H           1 E1B       0.1233
     30 H4         26.0457  -38.9135   20.9162 H           1 E1B       0.0590
     31 H5         25.2700  -41.0822   20.1837 H           1 E1B       0.0537
     32 H6         24.4969  -37.0958   21.1575 H           1 E1B       0.0543
     33 H7         15.5179  -37.6652   24.0977 H           1 E1B       0.0637
     34 H8         16.4364  -35.7139   23.1305 H           1 E1B       0.0642
     35 H9         21.3341  -39.5859   19.8772 H           1 E1B       0.0550
     36 H10        18.8867  -39.9057   22.8972 H           1 E1B       0.0650
     37 H11        22.4210  -36.2337   20.3456 H           1 E1B       0.2200
@<TRIPOS>BOND
     1     1     2  ar
     2     6     1  ar
     3     3     2  ar
     4     4     3  ar
     5     5     4  ar
     6    24     4  ar
     7     5     6  ar
     8    26     5  ar
     9    10     7   3
    10    20     8  ar
    11    20     9  ar
    12    21    10   1
    13    11    12  ar
    14    13    11  ar
    15    21    12  ar
    16    22    13  ar
    17    14    15  ar
    18    23    14  ar
    19    15    26  ar
    20    16    21  ar
    21    22    16  ar
    22    23    17  ar
    23    17    25  ar
    24    18    24  ar
    25    25    18  ar
    26    19    22   1
    27    24    19   1
    28    20    23   1
    29    25    26  ar
    30     2    27   1
    31     6    28   1
    32     7    29   1
    33    11    30   1
    34    12    31   1
    35    13    32   1
    36    14    33   1
    37    15    34   1
    38    16    35   1
    39    17    36   1
    40    19    37   1
@<TRIPOS>SUBSTRUCTURE
     1  E1B      2

