@<TRIPOS>MOLECULE
3pe2_ligand_028
    37    40
SMALL
GAST_HUCK
****
This file was generated by PARSER (from files_GN.cpp)

@<TRIPOS>ATOM
      1 N1         14.7876  -28.1470   22.3476 N.ar        1 E1B      -0.2566
      2 C2         15.8003  -28.1554   21.4528 C.ar        1 E1B       0.0922
      3 N3         16.7609  -29.1050   21.5411 N.ar        1 E1B      -0.2517
      4 C4         16.7428  -30.0628   22.5093 C.ar        1 E1B       0.1245
      5 C5         15.6892  -30.0841   23.4691 C.ar        1 E1B       0.0502
      6 C6         14.7078  -29.0695   23.3376 C.ar        1 E1B       0.0434
      7 CAA        20.9368  -36.4075   21.2833 C.1         1 E1B      -0.1140
      8 OAB        16.5950  -35.3119   27.2508 O.co2       1 E1B      -0.5601
      9 OAC        15.2415  -34.0507   28.6275 O.co2       1 E1B      -0.5601
     10 CAD        20.9769  -35.2163   21.3609 C.1         1 E1B      -0.0725
     11 CAE        22.3420  -31.8599   21.3296 C.ar        1 E1B      -0.0695
     12 CAG        22.2796  -33.2639   21.3132 C.ar        1 E1B      -0.0574
     13 CAH        21.1636  -31.1029   21.4572 C.ar        1 E1B      -0.0371
     14 CAI        14.7929  -32.1948   26.4831 C.ar        1 E1B      -0.0469
     15 CAJ        14.7181  -31.1868   25.5060 C.ar        1 E1B      -0.0482
     16 CAL        19.8536  -33.1505   21.5878 C.ar        1 E1B      -0.0223
     17 CAM        16.7931  -33.0761   25.4304 C.ar        1 E1B      -0.0324
     18 NAP        17.7173  -31.9771   23.5289 N.ar        1 E1B      -0.2773
     19 NAQ        18.8115  -30.9419   21.6915 N.pl3       1 E1B      -0.2490
     20 CAR        15.8945  -34.1720   27.4483 C.2         1 E1B       0.0639
     21 CAS        21.0335  -33.9161   21.4311 C.ar        1 E1B       0.0156
     22 CAT        19.9139  -31.7371   21.6150 C.ar        1 E1B       0.0678
     23 CAU        15.8264  -33.1584   26.4594 C.ar        1 E1B       0.0111
     24 CAV        17.7737  -31.0273   22.5614 C.ar        1 E1B       0.1682
     25 CAW        16.7370  -32.0496   24.4644 C.ar        1 E1B       0.0354
     26 CAY        15.6888  -31.0864   24.4802 C.ar        1 E1B       0.0121
     27 H1         15.8382  -27.4583   20.7127 H           1 E1B       0.1131
     28 H2         13.9136  -28.9996   23.9707 H           1 E1B       0.0992
     29 H3         20.9078  -37.3257   21.2208 H           1 E1B       0.1233
     30 H4         23.2450  -31.3884   21.2377 H           1 E1B       0.0590
     31 H5         23.1475  -33.7965   21.1967 H           1 E1B       0.0537
     32 H6         21.2277  -30.0814   21.4610 H           1 E1B       0.0543
     33 H7         14.0684  -32.2211   27.2038 H           1 E1B       0.0637
     34 H8         13.9489  -30.5191   25.5747 H           1 E1B       0.0642
     35 H9         18.9431  -33.6175   21.6529 H           1 E1B       0.0550
     36 H10        17.5624  -33.7503   25.3892 H           1 E1B       0.0650
     37 H11        18.8224  -30.1483   21.1316 H           1 E1B       0.2200
@<TRIPOS>BOND
     1     1     2  ar
     2     6     1  ar
     3     3     2  ar
     4     4     3  ar
     5     5     4  ar
     6    24     4  ar
     7     5     6  ar
     8    26     5  ar
     9    10     7   3
    10    20     8  ar
    11    20     9  ar
    12    21    10   1
    13    11    12  ar
    14    13    11  ar
    15    21    12  ar
    16    22    13  ar
    17    14    15  ar
    18    23    14  ar
    19    15    26  ar
    20    16    21  ar
    21    22    16  ar
    22    23    17  ar
    23    17    25  ar
    24    18    24  ar
    25    25    18  ar
    26    19    22   1
    27    24    19   1
    28    20    23   1
    29    25    26  ar
    30     2    27   1
    31     6    28   1
    32     7    29   1
    33    11    30   1
    34    12    31   1
    35    13    32   1
    36    14    33   1
    37    15    34   1
    38    16    35   1
    39    17    36   1
    40    19    37   1
@<TRIPOS>SUBSTRUCTURE
     1  E1B      2

