@<TRIPOS>MOLECULE
3pe2_ligand_009
    37    40
SMALL
GAST_HUCK
****
This file was generated by PARSER (from files_GN.cpp)

@<TRIPOS>ATOM
      1 N1         24.8570  -29.8380   19.8135 N.ar        1 E1B      -0.2566
      2 C2         24.2375  -28.6491   19.7062 C.ar        1 E1B       0.0922
      3 N3         22.9801  -28.5340   20.1961 N.ar        1 E1B      -0.2517
      4 C4         22.2768  -29.5650   20.7208 C.ar        1 E1B       0.1245
      5 C5         22.8927  -30.8466   20.7943 C.ar        1 E1B       0.0502
      6 C6         24.2390  -30.9168   20.3519 C.ar        1 E1B       0.0434
      7 CAA        20.6329  -22.7791   23.1896 C.1         1 E1B      -0.1140
      8 OAB        18.9856  -35.7482   22.2591 O.co2       1 E1B      -0.5601
      9 OAC        20.3726  -35.7037   24.1012 O.co2       1 E1B      -0.5601
     10 CAD        20.6903  -23.6542   22.3780 C.1         1 E1B      -0.0725
     11 CAE        21.3867  -25.3802   19.2647 C.ar        1 E1B      -0.0695
     12 CAG        21.2798  -24.3466   20.2108 C.ar        1 E1B      -0.0574
     13 CAH        20.9826  -26.6843   19.6053 C.ar        1 E1B      -0.0371
     14 CAI        21.8835  -34.3022   21.9616 C.ar        1 E1B      -0.0469
     15 CAJ        22.6542  -33.2739   21.3917 C.ar        1 E1B      -0.0482
     16 CAL        20.3719  -25.9252   21.8346 C.ar        1 E1B      -0.0223
     17 CAM        20.0654  -32.7340   22.3505 C.ar        1 E1B      -0.0324
     18 NAP        20.3224  -30.4587   21.7301 N.ar        1 E1B      -0.2773
     19 NAQ        20.2209  -28.2420   21.3083 N.pl3       1 E1B      -0.2490
     20 CAR        19.8398  -35.0582   23.0433 C.2         1 E1B       0.0639
     21 CAS        20.7623  -24.6117   21.4961 C.ar        1 E1B       0.0156
     22 CAT        20.5381  -26.9814   20.9047 C.ar        1 E1B       0.0678
     23 CAU        20.5871  -34.0361   22.4490 C.ar        1 E1B       0.0111
     24 CAV        20.9474  -29.3849   21.2070 C.ar        1 E1B       0.1682
     25 CAW        20.8476  -31.7035   21.7947 C.ar        1 E1B       0.0354
     26 CAY        22.1647  -31.9486   21.3203 C.ar        1 E1B       0.0121
     27 H1         24.7038  -27.8478   19.2830 H           1 E1B       0.1131
     28 H2         24.7822  -31.7701   20.4144 H           1 E1B       0.0992
     29 H3         20.5929  -22.1004   23.8155 H           1 E1B       0.1233
     30 H4         21.7565  -25.1935   18.3313 H           1 E1B       0.0590
     31 H5         21.5855  -23.4063   19.9455 H           1 E1B       0.0537
     32 H6         21.0860  -27.4280   18.9145 H           1 E1B       0.0543
     33 H7         22.2735  -35.2459   22.0120 H           1 E1B       0.0637
     34 H8         23.5853  -33.5188   21.0513 H           1 E1B       0.0642
     35 H9         19.9982  -26.1278   22.7690 H           1 E1B       0.0550
     36 H10        19.1316  -32.5183   22.7207 H           1 E1B       0.0650
     37 H11        19.3962  -28.3196   21.8215 H           1 E1B       0.2200
@<TRIPOS>BOND
     1     1     2  ar
     2     6     1  ar
     3     3     2  ar
     4     4     3  ar
     5     5     4  ar
     6    24     4  ar
     7     5     6  ar
     8    26     5  ar
     9    10     7   3
    10    20     8  ar
    11    20     9  ar
    12    21    10   1
    13    11    12  ar
    14    13    11  ar
    15    21    12  ar
    16    22    13  ar
    17    14    15  ar
    18    23    14  ar
    19    15    26  ar
    20    16    21  ar
    21    22    16  ar
    22    23    17  ar
    23    17    25  ar
    24    18    24  ar
    25    25    18  ar
    26    19    22   1
    27    24    19   1
    28    20    23   1
    29    25    26  ar
    30     2    27   1
    31     6    28   1
    32     7    29   1
    33    11    30   1
    34    12    31   1
    35    13    32   1
    36    14    33   1
    37    15    34   1
    38    16    35   1
    39    17    36   1
    40    19    37   1
@<TRIPOS>SUBSTRUCTURE
     1  E1B      2

