@<TRIPOS>MOLECULE
3pe2_ligand_031
    37    40
SMALL
GAST_HUCK
****
This file was generated by PARSER (from files_GN.cpp)

@<TRIPOS>ATOM
      1 N1         23.2273  -23.5597   12.8871 N.ar        1 E1B      -0.2566
      2 C2         22.2001  -22.8626   13.4245 C.ar        1 E1B       0.0922
      3 N3         21.3655  -23.4729   14.2969 N.ar        1 E1B      -0.2517
      4 C4         21.5274  -24.7733   14.6638 C.ar        1 E1B       0.1245
      5 C5         22.6008  -25.5391   14.1205 C.ar        1 E1B       0.0502
      6 C6         23.4435  -24.8594   13.2049 C.ar        1 E1B       0.0434
      7 CAA        17.7131  -24.8262   21.5620 C.1         1 E1B      -0.1140
      8 OAB        22.3288  -31.4115   16.9271 O.co2       1 E1B      -0.5601
      9 OAC        23.9225  -31.8353   15.3231 O.co2       1 E1B      -0.5601
     10 CAD        17.6581  -25.0393   20.3883 C.1         1 E1B      -0.0725
     11 CAE        16.3849  -26.0786   17.1458 C.ar        1 E1B      -0.0695
     12 CAG        16.4539  -25.8619   18.5355 C.ar        1 E1B      -0.0574
     13 CAH        17.4562  -25.6959   16.3203 C.ar        1 E1B      -0.0371
     14 CAI        23.8602  -29.0967   14.4739 C.ar        1 E1B      -0.0469
     15 CAJ        23.7643  -27.7671   14.0282 C.ar        1 E1B      -0.0482
     16 CAL        18.6790  -24.8906   18.2736 C.ar        1 E1B      -0.0223
     17 CAM        21.9306  -28.7634   15.9050 C.ar        1 E1B      -0.0324
     18 NAP        20.8187  -26.6637   15.9316 N.ar        1 E1B      -0.2773
     19 NAQ        19.5920  -24.6460   16.0673 N.pl3       1 E1B      -0.2490
     20 CAR        23.0661  -30.9529   15.8886 C.2         1 E1B       0.0639
     21 CAS        17.6030  -25.2696   19.1078 C.ar        1 E1B       0.0156
     22 CAT        18.6118  -25.1126   16.8808 C.ar        1 E1B       0.0678
     23 CAU        22.9536  -29.6164   15.4264 C.ar        1 E1B       0.0111
     24 CAV        20.6232  -25.3687   15.5714 C.ar        1 E1B       0.1682
     25 CAW        21.8275  -27.4329   15.4520 C.ar        1 E1B       0.0354
     26 CAY        22.7534  -26.9002   14.5107 C.ar        1 E1B       0.0121
     27 H1         22.0623  -21.8813   13.1829 H           1 E1B       0.1131
     28 H2         24.2358  -25.3219   12.7589 H           1 E1B       0.0992
     29 H3         17.7561  -24.6664   22.4678 H           1 E1B       0.1233
     30 H4         15.5433  -26.4866   16.7344 H           1 E1B       0.0590
     31 H5         15.6556  -26.1277   19.1212 H           1 E1B       0.0537
     32 H6         17.3861  -25.8322   15.3092 H           1 E1B       0.0543
     33 H7         24.6107  -29.6779   14.0952 H           1 E1B       0.0637
     34 H8         24.4493  -27.4545   13.3399 H           1 E1B       0.0642
     35 H9         19.5124  -24.4484   18.6771 H           1 E1B       0.0550
     36 H10        21.2450  -29.1039   16.5879 H           1 E1B       0.0650
     37 H11        19.5358  -23.7160   15.8101 H           1 E1B       0.2200
@<TRIPOS>BOND
     1     1     2  ar
     2     6     1  ar
     3     3     2  ar
     4     4     3  ar
     5     5     4  ar
     6    24     4  ar
     7     5     6  ar
     8    26     5  ar
     9    10     7   3
    10    20     8  ar
    11    20     9  ar
    12    21    10   1
    13    11    12  ar
    14    13    11  ar
    15    21    12  ar
    16    22    13  ar
    17    14    15  ar
    18    23    14  ar
    19    15    26  ar
    20    16    21  ar
    21    22    16  ar
    22    23    17  ar
    23    17    25  ar
    24    18    24  ar
    25    25    18  ar
    26    19    22   1
    27    24    19   1
    28    20    23   1
    29    25    26  ar
    30     2    27   1
    31     6    28   1
    32     7    29   1
    33    11    30   1
    34    12    31   1
    35    13    32   1
    36    14    33   1
    37    15    34   1
    38    16    35   1
    39    17    36   1
    40    19    37   1
@<TRIPOS>SUBSTRUCTURE
     1  E1B      2

