@<TRIPOS>MOLECULE
3pe2_ligand_054
    37    40
SMALL
GAST_HUCK
****
This file was generated by PARSER (from files_GN.cpp)

@<TRIPOS>ATOM
      1 N1         23.8090  -32.6559   20.6080 N.ar        1 E1B      -0.2566
      2 C2         23.7998  -33.0629   19.3226 C.ar        1 E1B       0.0922
      3 N3         22.6608  -32.9451   18.6063 N.ar        1 E1B      -0.2517
      4 C4         21.5023  -32.4680   19.1348 C.ar        1 E1B       0.1245
      5 C5         21.4603  -32.1182   20.5162 C.ar        1 E1B       0.0502
      6 C6         22.6917  -32.1963   21.2075 C.ar        1 E1B       0.0434
      7 CAA        22.5950  -36.6791   13.7212 C.1         1 E1B      -0.1140
      8 OAB        15.4970  -29.9657   21.8277 O.co2       1 E1B      -0.5601
      9 OAC        16.1146  -30.5937   23.9592 O.co2       1 E1B      -0.5601
     10 CAD        22.5142  -35.5679   14.1577 C.1         1 E1B      -0.0725
     11 CAE        23.2778  -32.1129   14.9821 C.ar        1 E1B      -0.0695
     12 CAG        23.3921  -33.3915   14.4040 C.ar        1 E1B      -0.0574
     13 CAH        22.1881  -31.8092   15.8231 C.ar        1 E1B      -0.0371
     14 CAI        18.8125  -31.0242   23.0039 C.ar        1 E1B      -0.0469
     15 CAJ        20.0603  -31.4160   22.4897 C.ar        1 E1B      -0.0482
     16 CAL        21.3233  -34.0601   15.5088 C.ar        1 E1B      -0.0223
     17 CAM        17.8399  -31.2410   20.7953 C.ar        1 E1B      -0.0324
     18 NAP        19.1860  -31.9662   18.9618 N.ar        1 E1B      -0.2773
     19 NAQ        20.2115  -32.5727   17.0047 N.pl3       1 E1B      -0.2490
     20 CAR        16.4458  -30.4566   22.6558 C.2         1 E1B       0.0639
     21 CAS        22.4094  -34.3730   14.6555 C.ar        1 E1B       0.0156
     22 CAT        21.2163  -32.7923   16.1166 C.ar        1 E1B       0.0678
     23 CAU        17.6891  -30.9034   22.1590 C.ar        1 E1B       0.0111
     24 CAV        20.3274  -32.3479   18.3392 C.ar        1 E1B       0.1682
     25 CAW        19.0839  -31.6521   20.2769 C.ar        1 E1B       0.0354
     26 CAY        20.2385  -31.7219   21.1123 C.ar        1 E1B       0.0121
     27 H1         24.6419  -33.4326   18.8887 H           1 E1B       0.1131
     28 H2         22.7729  -31.8920   22.1715 H           1 E1B       0.0992
     29 H3         22.6558  -37.5374   13.3871 H           1 E1B       0.1233
     30 H4         23.9986  -31.4092   14.8032 H           1 E1B       0.0590
     31 H5         24.2003  -33.6010   13.8100 H           1 E1B       0.0537
     32 H6         22.1209  -30.8793   16.2412 H           1 E1B       0.0543
     33 H7         18.7417  -30.8084   24.0047 H           1 E1B       0.0637
     34 H8         20.8391  -31.4770   23.1487 H           1 E1B       0.0642
     35 H9         20.6290  -34.7738   15.7336 H           1 E1B       0.0550
     36 H10        17.0332  -31.2069   20.1679 H           1 E1B       0.0650
     37 H11        19.2999  -32.6145   16.6530 H           1 E1B       0.2200
@<TRIPOS>BOND
     1     1     2  ar
     2     6     1  ar
     3     3     2  ar
     4     4     3  ar
     5     5     4  ar
     6    24     4  ar
     7     5     6  ar
     8    26     5  ar
     9    10     7   3
    10    20     8  ar
    11    20     9  ar
    12    21    10   1
    13    11    12  ar
    14    13    11  ar
    15    21    12  ar
    16    22    13  ar
    17    14    15  ar
    18    23    14  ar
    19    15    26  ar
    20    16    21  ar
    21    22    16  ar
    22    23    17  ar
    23    17    25  ar
    24    18    24  ar
    25    25    18  ar
    26    19    22   1
    27    24    19   1
    28    20    23   1
    29    25    26  ar
    30     2    27   1
    31     6    28   1
    32     7    29   1
    33    11    30   1
    34    12    31   1
    35    13    32   1
    36    14    33   1
    37    15    34   1
    38    16    35   1
    39    17    36   1
    40    19    37   1
@<TRIPOS>SUBSTRUCTURE
     1  E1B      2

