@<TRIPOS>MOLECULE
3pe2_ligand_037
    37    40
SMALL
GAST_HUCK
****
This file was generated by PARSER (from files_GN.cpp)

@<TRIPOS>ATOM
      1 N1         20.2683  -21.3709   18.8975 N.ar        1 E1B      -0.2566
      2 C2         19.0657  -21.8657   18.5278 C.ar        1 E1B       0.0922
      3 N3         18.5543  -22.9303   19.1873 N.ar        1 E1B      -0.2517
      4 C4         19.2069  -23.5274   20.2217 C.ar        1 E1B       0.1245
      5 C5         20.4707  -23.0198   20.6495 C.ar        1 E1B       0.0502
      6 C6         20.9719  -21.9117   19.9201 C.ar        1 E1B       0.0434
      7 CAA        17.3245  -30.5656   22.6473 C.1         1 E1B      -0.1140
      8 OAB        23.9414  -26.6119   24.7177 O.co2       1 E1B      -0.5601
      9 OAC        22.5793  -25.4649   26.2448 O.co2       1 E1B      -0.5601
     10 CAD        16.8733  -29.5103   22.3291 C.1         1 E1B      -0.0725
     11 CAE        14.4639  -26.8527   21.7896 C.ar        1 E1B      -0.0695
     12 CAG        15.0012  -28.0976   22.1598 C.ar        1 E1B      -0.0574
     13 CAH        15.2950  -25.8684   21.2268 C.ar        1 E1B      -0.0371
     14 CAI        23.0250  -23.9361   23.3086 C.ar        1 E1B      -0.0469
     15 CAJ        22.4128  -23.2526   22.2448 C.ar        1 E1B      -0.0482
     16 CAL        17.2097  -27.3548   21.4382 C.ar        1 E1B      -0.0223
     17 CAM        21.0985  -25.4185   23.4601 C.ar        1 E1B      -0.0324
     18 NAP        19.2985  -25.1808   21.9218 N.ar        1 E1B      -0.2773
     19 NAQ        17.4172  -25.1069   20.4780 N.pl3       1 E1B      -0.2490
     20 CAR        22.9810  -25.6948   24.9726 C.2         1 E1B       0.0639
     21 CAS        16.3802  -28.3540   21.9911 C.ar        1 E1B       0.0156
     22 CAT        16.6766  -26.0989   21.0566 C.ar        1 E1B       0.0678
     23 CAU        22.3689  -25.0196   23.9186 C.ar        1 E1B       0.0111
     24 CAV        18.6331  -24.6405   20.8707 C.ar        1 E1B       0.1682
     25 CAW        20.4960  -24.7459   22.3777 C.ar        1 E1B       0.0354
     26 CAY        21.1407  -23.6436   21.7502 C.ar        1 E1B       0.0121
     27 H1         18.5563  -21.4423   17.7524 H           1 E1B       0.1131
     28 H2         21.8697  -21.4838   20.1360 H           1 E1B       0.0992
     29 H3         17.6757  -31.3802   22.9022 H           1 E1B       0.1233
     30 H4         13.4704  -26.6647   21.9277 H           1 E1B       0.0590
     31 H5         14.3757  -28.8087   22.5565 H           1 E1B       0.0537
     32 H6         14.8849  -24.9755   20.9493 H           1 E1B       0.0543
     33 H7         23.9390  -23.6250   23.6487 H           1 E1B       0.0637
     34 H8         22.9201  -22.4624   21.8410 H           1 E1B       0.0642
     35 H9         18.2028  -27.5488   21.2687 H           1 E1B       0.0550
     36 H10        20.6330  -26.2262   23.8874 H           1 E1B       0.0650
     37 H11        16.9704  -24.6032   19.7727 H           1 E1B       0.2200
@<TRIPOS>BOND
     1     1     2  ar
     2     6     1  ar
     3     3     2  ar
     4     4     3  ar
     5     5     4  ar
     6    24     4  ar
     7     5     6  ar
     8    26     5  ar
     9    10     7   3
    10    20     8  ar
    11    20     9  ar
    12    21    10   1
    13    11    12  ar
    14    13    11  ar
    15    21    12  ar
    16    22    13  ar
    17    14    15  ar
    18    23    14  ar
    19    15    26  ar
    20    16    21  ar
    21    22    16  ar
    22    23    17  ar
    23    17    25  ar
    24    18    24  ar
    25    25    18  ar
    26    19    22   1
    27    24    19   1
    28    20    23   1
    29    25    26  ar
    30     2    27   1
    31     6    28   1
    32     7    29   1
    33    11    30   1
    34    12    31   1
    35    13    32   1
    36    14    33   1
    37    15    34   1
    38    16    35   1
    39    17    36   1
    40    19    37   1
@<TRIPOS>SUBSTRUCTURE
     1  E1B      2

