@<TRIPOS>MOLECULE
3pe2_ligand_005
    37    40
SMALL
GAST_HUCK
****
This file was generated by PARSER (from files_GN.cpp)

@<TRIPOS>ATOM
      1 N1         18.3573  -33.2589   24.1700 N.ar        1 E1B      -0.2566
      2 C2         19.6007  -33.2172   23.6297 C.ar        1 E1B       0.0922
      3 N3         19.9616  -32.1639   22.8525 N.ar        1 E1B      -0.2517
      4 C4         19.1194  -31.1298   22.5967 C.ar        1 E1B       0.1245
      5 C5         17.8119  -31.1226   23.1741 C.ar        1 E1B       0.0502
      6 C6         17.4699  -32.2537   23.9697 C.ar        1 E1B       0.0434
      7 CAA        22.4997  -35.2280   19.5955 C.1         1 E1B      -0.1140
      8 OAB        13.3065  -26.3946   22.5831 O.co2       1 E1B      -0.5601
      9 OAC        15.2351  -25.2371   22.0719 O.co2       1 E1B      -0.5601
     10 CAD        22.6377  -34.0845   19.9242 C.1         1 E1B      -0.0725
     11 CAE        24.2282  -30.9541   20.8400 C.ar        1 E1B      -0.0695
     12 CAG        24.0753  -32.2955   20.4433 C.ar        1 E1B      -0.0574
     13 CAH        23.0950  -30.1603   21.0983 C.ar        1 E1B      -0.0371
     14 CAI        14.8884  -28.7026   23.2790 C.ar        1 E1B      -0.0469
     15 CAJ        15.6512  -29.8669   23.4911 C.ar        1 E1B      -0.0482
     16 CAL        21.6499  -32.0316   20.5166 C.ar        1 E1B      -0.0223
     17 CAM        16.6755  -27.7684   21.9370 C.ar        1 E1B      -0.0324
     18 NAP        18.6876  -29.0022   21.6338 N.ar        1 E1B      -0.2773
     19 NAQ        20.7279  -29.8634   21.1553 N.pl3       1 E1B      -0.2490
     20 CAR        14.6482  -26.4238   22.3621 C.2         1 E1B       0.0639
     21 CAS        22.7821  -32.8437   20.2839 C.ar        1 E1B       0.0156
     22 CAT        21.7940  -30.6971   20.9700 C.ar        1 E1B       0.0678
     23 CAU        15.3965  -27.6253   22.5154 C.ar        1 E1B       0.0111
     24 CAV        19.5403  -30.0427   21.7881 C.ar        1 E1B       0.1682
     25 CAW        17.4430  -28.9315   22.1571 C.ar        1 E1B       0.0354
     26 CAY        16.9525  -30.0076   22.9482 C.ar        1 E1B       0.0121
     27 H1         20.2605  -33.9800   23.7834 H           1 E1B       0.1131
     28 H2         16.5575  -32.3497   24.4082 H           1 E1B       0.0992
     29 H3         22.3849  -36.1074   19.3436 H           1 E1B       0.1233
     30 H4         25.1646  -30.5617   20.9355 H           1 E1B       0.0590
     31 H5         24.9139  -32.8582   20.2639 H           1 E1B       0.0537
     32 H6         23.2285  -29.1906   21.3944 H           1 E1B       0.0543
     33 H7         13.9590  -28.6458   23.7113 H           1 E1B       0.0637
     34 H8         15.2356  -30.5963   24.0759 H           1 E1B       0.0642
     35 H9         20.7076  -32.4064   20.3546 H           1 E1B       0.0550
     36 H10        17.0618  -27.0231   21.3493 H           1 E1B       0.0650
     37 H11        20.8532  -28.9719   20.7922 H           1 E1B       0.2200
@<TRIPOS>BOND
     1     1     2  ar
     2     6     1  ar
     3     3     2  ar
     4     4     3  ar
     5     5     4  ar
     6    24     4  ar
     7     5     6  ar
     8    26     5  ar
     9    10     7   3
    10    20     8  ar
    11    20     9  ar
    12    21    10   1
    13    11    12  ar
    14    13    11  ar
    15    21    12  ar
    16    22    13  ar
    17    14    15  ar
    18    23    14  ar
    19    15    26  ar
    20    16    21  ar
    21    22    16  ar
    22    23    17  ar
    23    17    25  ar
    24    18    24  ar
    25    25    18  ar
    26    19    22   1
    27    24    19   1
    28    20    23   1
    29    25    26  ar
    30     2    27   1
    31     6    28   1
    32     7    29   1
    33    11    30   1
    34    12    31   1
    35    13    32   1
    36    14    33   1
    37    15    34   1
    38    16    35   1
    39    17    36   1
    40    19    37   1
@<TRIPOS>SUBSTRUCTURE
     1  E1B      2

