@<TRIPOS>MOLECULE
3pe2_ligand_027
    37    40
SMALL
GAST_HUCK
****
This file was generated by PARSER (from files_GN.cpp)

@<TRIPOS>ATOM
      1 N1         22.4273  -30.5404   21.4657 N.ar        1 E1B      -0.2566
      2 C2         22.6205  -30.4760   20.1275 C.ar        1 E1B       0.0922
      3 N3         21.8440  -31.2200   19.3033 N.ar        1 E1B      -0.2517
      4 C4         20.8611  -32.0398   19.7732 C.ar        1 E1B       0.1245
      5 C5         20.6336  -32.1395   21.1828 C.ar        1 E1B       0.0502
      6 C6         21.4736  -31.3405   22.0015 C.ar        1 E1B       0.0434
      7 CAA        25.3240  -32.9832   14.8429 C.1         1 E1B      -0.1140
      8 OAB        16.9410  -36.9346   23.3928 O.co2       1 E1B      -0.5601
      9 OAC        15.2714  -35.3789   22.9673 O.co2       1 E1B      -0.5601
     10 CAD        24.2813  -32.5195   15.1969 C.1         1 E1B      -0.0725
     11 CAE        21.6406  -30.0713   15.6054 C.ar        1 E1B      -0.0695
     12 CAG        22.8675  -30.6491   15.2352 C.ar        1 E1B      -0.0574
     13 CAH        20.7067  -30.8157   16.3448 C.ar        1 E1B      -0.0371
     14 CAI        18.2978  -34.1424   23.4167 C.ar        1 E1B      -0.0469
     15 CAJ        19.3069  -33.2403   23.0314 C.ar        1 E1B      -0.0482
     16 CAL        22.2137  -32.7364   16.3243 C.ar        1 E1B      -0.0223
     17 CAM        17.8054  -34.6025   21.0846 C.ar        1 E1B      -0.0324
     18 NAP        19.0759  -33.5573   19.3848 N.ar        1 E1B      -0.2773
     19 NAQ        20.1367  -32.8148   17.5157 N.pl3       1 E1B      -0.2490
     20 CAR        16.5610  -35.7633   22.8336 C.2         1 E1B       0.0639
     21 CAS        23.1532  -31.9898   15.5728 C.ar        1 E1B       0.0156
     22 CAT        21.0038  -32.1341   16.7387 C.ar        1 E1B       0.0678
     23 CAU        17.5383  -34.8306   22.4496 C.ar        1 E1B       0.0111
     24 CAV        20.0535  -32.7827   18.8698 C.ar        1 E1B       0.1682
     25 CAW        18.8310  -33.7170   20.7009 C.ar        1 E1B       0.0354
     26 CAY        19.6078  -33.0113   21.6621 C.ar        1 E1B       0.0121
     27 H1         23.3432  -29.8652   19.7377 H           1 E1B       0.1131
     28 H2         21.3890  -31.3327   23.0172 H           1 E1B       0.0992
     29 H3         26.1326  -33.3295   14.5633 H           1 E1B       0.1233
     30 H4         21.4249  -29.1087   15.3367 H           1 E1B       0.0590
     31 H5         23.5391  -30.0859   14.7041 H           1 E1B       0.0537
     32 H6         19.8131  -30.3942   16.5938 H           1 E1B       0.0543
     33 H7         18.1219  -34.3003   24.4134 H           1 E1B       0.0637
     34 H8         19.8285  -32.7700   23.7712 H           1 E1B       0.0642
     35 H9         22.4079  -33.7103   16.5835 H           1 E1B       0.0550
     36 H10        17.2765  -35.1038   20.3657 H           1 E1B       0.0650
     37 H11        19.4999  -33.3879   17.0547 H           1 E1B       0.2200
@<TRIPOS>BOND
     1     1     2  ar
     2     6     1  ar
     3     3     2  ar
     4     4     3  ar
     5     5     4  ar
     6    24     4  ar
     7     5     6  ar
     8    26     5  ar
     9    10     7   3
    10    20     8  ar
    11    20     9  ar
    12    21    10   1
    13    11    12  ar
    14    13    11  ar
    15    21    12  ar
    16    22    13  ar
    17    14    15  ar
    18    23    14  ar
    19    15    26  ar
    20    16    21  ar
    21    22    16  ar
    22    23    17  ar
    23    17    25  ar
    24    18    24  ar
    25    25    18  ar
    26    19    22   1
    27    24    19   1
    28    20    23   1
    29    25    26  ar
    30     2    27   1
    31     6    28   1
    32     7    29   1
    33    11    30   1
    34    12    31   1
    35    13    32   1
    36    14    33   1
    37    15    34   1
    38    16    35   1
    39    17    36   1
    40    19    37   1
@<TRIPOS>SUBSTRUCTURE
     1  E1B      2

