@<TRIPOS>MOLECULE
3pe2_ligand_000
    37    40
SMALL
GAST_HUCK
****
This file was generated by PARSER (from files_GN.cpp)

@<TRIPOS>ATOM
      1 N1         21.7457  -30.6457   22.0452 N.ar        1 E1B      -0.2566
      2 C2         22.6303  -31.4505   21.4151 C.ar        1 E1B       0.0922
      3 N3         22.3704  -32.7743   21.3185 N.ar        1 E1B      -0.2517
      4 C4         21.2353  -33.3312   21.8287 C.ar        1 E1B       0.1245
      5 C5         20.2738  -32.5084   22.4929 C.ar        1 E1B       0.0502
      6 C6         20.5955  -31.1299   22.5742 C.ar        1 E1B       0.0434
      7 CAA        25.2316  -40.2471   20.5524 C.1         1 E1B      -0.1140
      8 OAB        15.6774  -35.7859   25.6280 O.co2       1 E1B      -0.5601
      9 OAC        14.3923  -34.8356   23.9374 O.co2       1 E1B      -0.5601
     10 CAD        24.2172  -39.6132   20.5045 C.1         1 E1B      -0.0725
     11 CAE        20.6897  -38.8765   20.1225 C.ar        1 E1B      -0.0695
     12 CAG        21.9004  -39.5939   20.1359 C.ar        1 E1B      -0.0574
     13 CAH        20.6800  -37.5073   20.4425 C.ar        1 E1B      -0.0371
     14 CAI        16.8858  -33.0459   24.1213 C.ar        1 E1B      -0.0469
     15 CAJ        18.0343  -32.3863   23.6478 C.ar        1 E1B      -0.0482
     16 CAL        23.0868  -37.5657   20.7786 C.ar        1 E1B      -0.0223
     17 CAM        17.7817  -35.1685   23.3696 C.ar        1 E1B      -0.0324
     18 NAP        19.8803  -35.2347   22.2343 N.ar        1 E1B      -0.2773
     19 NAQ        21.9297  -35.5008   21.0756 N.pl3       1 E1B      -0.2490
     20 CAR        15.6194  -35.1115   24.4502 C.2         1 E1B       0.0639
     21 CAS        23.1089  -38.9462   20.4677 C.ar        1 E1B       0.0156
     22 CAT        21.8727  -36.8344   20.7888 C.ar        1 E1B       0.0678
     23 CAU        16.7558  -34.4386   23.9884 C.ar        1 E1B       0.0111
     24 CAV        21.0113  -34.7181   21.6975 C.ar        1 E1B       0.1682
     25 CAW        18.9269  -34.5071   22.8739 C.ar        1 E1B       0.0354
     26 CAY        19.0805  -33.0962   23.0094 C.ar        1 E1B       0.0121
     27 H1         23.4907  -31.0649   21.0240 H           1 E1B       0.1131
     28 H2         19.9843  -30.4605   23.0349 H           1 E1B       0.0992
     29 H3         26.0167  -40.7380   20.5982 H           1 E1B       0.1233
     30 H4         19.8209  -39.3569   19.8665 H           1 E1B       0.0590
     31 H5         21.8915  -40.5911   19.8930 H           1 E1B       0.0537
     32 H6         19.7949  -36.9997   20.3929 H           1 E1B       0.0543
     33 H7         16.1467  -32.4925   24.5774 H           1 E1B       0.0637
     34 H8         18.0838  -31.3748   23.7683 H           1 E1B       0.0642
     35 H9         23.9598  -37.0835   21.0245 H           1 E1B       0.0550
     36 H10        17.6940  -36.1851   23.2478 H           1 E1B       0.0650
     37 H11        22.7684  -35.0624   20.8426 H           1 E1B       0.2200
@<TRIPOS>BOND
     1     1     2  ar
     2     6     1  ar
     3     3     2  ar
     4     4     3  ar
     5     5     4  ar
     6    24     4  ar
     7     5     6  ar
     8    26     5  ar
     9    10     7   3
    10    20     8  ar
    11    20     9  ar
    12    21    10   1
    13    11    12  ar
    14    13    11  ar
    15    21    12  ar
    16    22    13  ar
    17    14    15  ar
    18    23    14  ar
    19    15    26  ar
    20    16    21  ar
    21    22    16  ar
    22    23    17  ar
    23    17    25  ar
    24    18    24  ar
    25    25    18  ar
    26    19    22   1
    27    24    19   1
    28    20    23   1
    29    25    26  ar
    30     2    27   1
    31     6    28   1
    32     7    29   1
    33    11    30   1
    34    12    31   1
    35    13    32   1
    36    14    33   1
    37    15    34   1
    38    16    35   1
    39    17    36   1
    40    19    37   1
@<TRIPOS>SUBSTRUCTURE
     1  E1B      2

