@<TRIPOS>MOLECULE
3pe2_ligand_012
    37    40
SMALL
GAST_HUCK
****
This file was generated by PARSER (from files_GN.cpp)

@<TRIPOS>ATOM
      1 N1         23.3206  -32.9764   19.7560 N.ar        1 E1B      -0.2566
      2 C2         22.7182  -31.8307   20.1480 C.ar        1 E1B       0.0922
      3 N3         21.5909  -31.8926   20.8929 N.ar        1 E1B      -0.2517
      4 C4         21.0359  -33.0770   21.2670 C.ar        1 E1B       0.1245
      5 C5         21.6446  -34.3064   20.8758 C.ar        1 E1B       0.0502
      6 C6         22.8220  -34.1909   20.0951 C.ar        1 E1B       0.0434
      7 CAA        16.0592  -33.5651   27.0596 C.1         1 E1B      -0.1140
      8 OAB        18.1896  -39.1112   23.5909 O.co2       1 E1B      -0.5601
      9 OAC        19.2503  -40.2890   21.9113 O.co2       1 E1B      -0.5601
     10 CAD        16.3382  -32.9093   26.1006 C.1         1 E1B      -0.0725
     11 CAE        16.1834  -30.3095   23.5712 C.ar        1 E1B      -0.0695
     12 CAG        15.8340  -31.0988   24.6805 C.ar        1 E1B      -0.0574
     13 CAH        17.3386  -30.6072   22.8279 C.ar        1 E1B      -0.0371
     14 CAI        20.8952  -37.9951   21.3608 C.ar        1 E1B      -0.0469
     15 CAJ        21.5557  -36.8240   20.9449 C.ar        1 E1B      -0.0482
     16 CAL        17.8035  -32.4859   24.3021 C.ar        1 E1B      -0.0223
     17 CAM        19.2026  -36.6566   22.4677 C.ar        1 E1B      -0.0324
     18 NAP        19.3272  -34.2885   22.3822 N.ar        1 E1B      -0.2773
     19 NAQ        19.2657  -31.9191   22.4022 N.pl3       1 E1B      -0.2490
     20 CAR        19.0464  -39.1108   22.5432 C.2         1 E1B       0.0639
     21 CAS        16.6453  -32.1904   25.0554 C.ar        1 E1B       0.0156
     22 CAT        18.1514  -31.7106   23.1674 C.ar        1 E1B       0.0678
     23 CAU        19.7098  -37.9300   22.1277 C.ar        1 E1B       0.0111
     24 CAV        19.8585  -33.0875   22.0458 C.ar        1 E1B       0.1682
     25 CAW        19.8586  -35.4855   22.0425 C.ar        1 E1B       0.0354
     26 CAY        21.0512  -35.5408   21.2710 C.ar        1 E1B       0.0121
     27 H1         23.1092  -30.9270   19.8816 H           1 E1B       0.1131
     28 H2         23.3259  -35.0082   19.7593 H           1 E1B       0.0992
     29 H3         15.8442  -34.0700   27.7998 H           1 E1B       0.1233
     30 H4         15.5982  -29.5149   23.3064 H           1 E1B       0.0590
     31 H5         14.9912  -30.8615   25.2132 H           1 E1B       0.0537
     32 H6         17.5768  -30.0189   22.0253 H           1 E1B       0.0543
     33 H7         21.3033  -38.8994   21.1104 H           1 E1B       0.0637
     34 H8         22.4107  -36.9345   20.3996 H           1 E1B       0.0642
     35 H9         18.4141  -33.2511   24.6024 H           1 E1B       0.0550
     36 H10        18.3395  -36.5724   23.0130 H           1 E1B       0.0650
     37 H11        19.6491  -31.1216   22.0031 H           1 E1B       0.2200
@<TRIPOS>BOND
     1     1     2  ar
     2     6     1  ar
     3     3     2  ar
     4     4     3  ar
     5     5     4  ar
     6    24     4  ar
     7     5     6  ar
     8    26     5  ar
     9    10     7   3
    10    20     8  ar
    11    20     9  ar
    12    21    10   1
    13    11    12  ar
    14    13    11  ar
    15    21    12  ar
    16    22    13  ar
    17    14    15  ar
    18    23    14  ar
    19    15    26  ar
    20    16    21  ar
    21    22    16  ar
    22    23    17  ar
    23    17    25  ar
    24    18    24  ar
    25    25    18  ar
    26    19    22   1
    27    24    19   1
    28    20    23   1
    29    25    26  ar
    30     2    27   1
    31     6    28   1
    32     7    29   1
    33    11    30   1
    34    12    31   1
    35    13    32   1
    36    14    33   1
    37    15    34   1
    38    16    35   1
    39    17    36   1
    40    19    37   1
@<TRIPOS>SUBSTRUCTURE
     1  E1B      2

