@<TRIPOS>MOLECULE
3pe2_ligand_019
    37    40
SMALL
GAST_HUCK
****
This file was generated by PARSER (from files_GN.cpp)

@<TRIPOS>ATOM
      1 N1         18.6240  -38.6404   21.9413 N.ar        1 E1B      -0.2566
      2 C2         19.7907  -38.5023   21.2701 C.ar        1 E1B       0.0922
      3 N3         20.3381  -37.2704   21.1392 N.ar        1 E1B      -0.2517
      4 C4         19.7515  -36.1595   21.6692 C.ar        1 E1B       0.1245
      5 C5         18.5438  -36.2757   22.4091 C.ar        1 E1B       0.0502
      6 C6         17.9968  -37.5784   22.5016 C.ar        1 E1B       0.0434
      7 CAA        21.2960  -30.2369   17.0112 C.1         1 E1B      -0.1140
      8 OAB        17.0154  -30.7864   25.5111 O.co2       1 E1B      -0.5601
      9 OAC        15.2206  -30.9863   24.0491 O.co2       1 E1B      -0.5601
     10 CAD        21.6855  -30.8745   17.9462 C.1         1 E1B      -0.0725
     11 CAE        23.8733  -32.0473   20.5903 C.ar        1 E1B      -0.0695
     12 CAG        23.3192  -31.2145   19.6051 C.ar        1 E1B      -0.0574
     13 CAH        23.2375  -33.2505   20.9398 C.ar        1 E1B      -0.0371
     14 CAI        16.2435  -33.8987   24.2733 C.ar        1 E1B      -0.0469
     15 CAJ        16.7673  -35.0958   23.7429 C.ar        1 E1B      -0.0482
     16 CAL        21.4722  -32.7777   19.3239 C.ar        1 E1B      -0.0223
     17 CAM        18.1029  -32.6586   23.3019 C.ar        1 E1B      -0.0324
     18 NAP        19.7324  -33.8013   21.9987 N.ar        1 E1B      -0.2773
     19 NAQ        21.4458  -34.7790   20.6904 N.pl3       1 E1B      -0.2490
     20 CAR        16.3650  -31.4743   24.5558 C.2         1 E1B       0.0639
     21 CAS        22.1294  -31.5918   18.9465 C.ar        1 E1B       0.0156
     22 CAT        22.0190  -33.6009   20.3279 C.ar        1 E1B       0.0678
     23 CAU        16.9092  -32.6716   24.0572 C.ar        1 E1B       0.0111
     24 CAV        20.3261  -34.8919   21.4428 C.ar        1 E1B       0.1682
     25 CAW        18.6121  -33.8594   22.7577 C.ar        1 E1B       0.0354
     26 CAY        17.9567  -35.1059   22.9778 C.ar        1 E1B       0.0121
     27 H1         20.2449  -39.3110   20.8525 H           1 E1B       0.1131
     28 H2         17.1166  -37.7622   22.9778 H           1 E1B       0.0992
     29 H3         20.9985  -29.7502   16.2850 H           1 E1B       0.1233
     30 H4         24.7569  -31.7886   21.0486 H           1 E1B       0.0590
     31 H5         23.8142  -30.3472   19.3577 H           1 E1B       0.0537
     32 H6         23.6572  -33.8623   21.6495 H           1 E1B       0.0543
     33 H7         15.3881  -33.9334   24.8182 H           1 E1B       0.0637
     34 H8         16.2529  -35.9538   23.9351 H           1 E1B       0.0642
     35 H9         20.6103  -33.0684   18.8504 H           1 E1B       0.0550
     36 H10        18.5870  -31.7769   23.1161 H           1 E1B       0.0650
     37 H11        21.9023  -35.5878   20.4445 H           1 E1B       0.2200
@<TRIPOS>BOND
     1     1     2  ar
     2     6     1  ar
     3     3     2  ar
     4     4     3  ar
     5     5     4  ar
     6    24     4  ar
     7     5     6  ar
     8    26     5  ar
     9    10     7   3
    10    20     8  ar
    11    20     9  ar
    12    21    10   1
    13    11    12  ar
    14    13    11  ar
    15    21    12  ar
    16    22    13  ar
    17    14    15  ar
    18    23    14  ar
    19    15    26  ar
    20    16    21  ar
    21    22    16  ar
    22    23    17  ar
    23    17    25  ar
    24    18    24  ar
    25    25    18  ar
    26    19    22   1
    27    24    19   1
    28    20    23   1
    29    25    26  ar
    30     2    27   1
    31     6    28   1
    32     7    29   1
    33    11    30   1
    34    12    31   1
    35    13    32   1
    36    14    33   1
    37    15    34   1
    38    16    35   1
    39    17    36   1
    40    19    37   1
@<TRIPOS>SUBSTRUCTURE
     1  E1B      2

