@<TRIPOS>MOLECULE
3pe2_ligand_039
    37    40
SMALL
GAST_HUCK
****
This file was generated by PARSER (from files_GN.cpp)

@<TRIPOS>ATOM
      1 N1         17.6654  -30.2063   20.8627 N.ar        1 E1B      -0.2566
      2 C2         18.0713  -31.4765   21.0436 C.ar        1 E1B       0.0922
      3 N3         17.9162  -32.0372   22.2558 N.ar        1 E1B      -0.2517
      4 C4         17.3722  -31.3892   23.3206 C.ar        1 E1B       0.1245
      5 C5         16.9325  -30.0417   23.1611 C.ar        1 E1B       0.0502
      6 C6         17.1084  -29.4841   21.8673 C.ar        1 E1B       0.0434
      7 CAA        22.4996  -34.8556   22.1925 C.1         1 E1B      -0.1140
      8 OAB        14.3398  -28.2159   28.8501 O.co2       1 E1B      -0.5601
      9 OAC        14.5521  -26.1593   27.8502 O.co2       1 E1B      -0.5601
     10 CAD        21.3430  -34.9363   22.4775 C.1         1 E1B      -0.0725
     11 CAE        17.8595  -35.9681   22.3906 C.ar        1 E1B      -0.0695
     12 CAG        19.2319  -35.9143   22.0884 C.ar        1 E1B      -0.0574
     13 CAH        17.3164  -35.1266   23.3760 C.ar        1 E1B      -0.0371
     14 CAI        15.3827  -27.3989   25.3966 C.ar        1 E1B      -0.0469
     15 CAJ        15.9246  -28.0103   24.2475 C.ar        1 E1B      -0.0482
     16 CAL        19.5297  -34.1799   23.7829 C.ar        1 E1B      -0.0223
     17 CAM        15.6709  -29.4612   26.6380 C.ar        1 E1B      -0.0324
     18 NAP        16.6632  -31.3475   25.5923 N.ar        1 E1B      -0.2773
     19 NAQ        17.5908  -33.3078   24.9061 N.pl3       1 E1B      -0.2490
     20 CAR        14.6976  -27.4974   27.7640 C.2         1 E1B       0.0639
     21 CAS        20.0759  -35.0183   22.7839 C.ar        1 E1B       0.0156
     22 CAT        18.1472  -34.2210   24.0659 C.ar        1 E1B       0.0678
     23 CAU        15.2437  -28.1148   26.6096 C.ar        1 E1B       0.0111
     24 CAV        17.2308  -32.0396   24.5772 C.ar        1 E1B       0.1682
     25 CAW        16.2327  -30.0659   25.4971 C.ar        1 E1B       0.0354
     26 CAY        16.3644  -29.3565   24.2702 C.ar        1 E1B       0.0121
     27 H1         18.4853  -32.0035   20.2775 H           1 E1B       0.1131
     28 H2         16.8218  -28.5332   21.6456 H           1 E1B       0.0992
     29 H3         23.3912  -34.7913   21.9727 H           1 E1B       0.1233
     30 H4         17.2483  -36.6022   21.8693 H           1 E1B       0.0590
     31 H5         19.6021  -36.5189   21.3488 H           1 E1B       0.0537
     32 H6         16.3077  -35.1353   23.5484 H           1 E1B       0.0543
     33 H7         15.0795  -26.4221   25.3305 H           1 E1B       0.0637
     34 H8         15.9968  -27.4444   23.4015 H           1 E1B       0.0642
     35 H9         20.1199  -33.5000   24.2686 H           1 E1B       0.0550
     36 H10        15.5916  -30.0134   27.5020 H           1 E1B       0.0650
     37 H11        17.3932  -33.6061   25.8050 H           1 E1B       0.2200
@<TRIPOS>BOND
     1     1     2  ar
     2     6     1  ar
     3     3     2  ar
     4     4     3  ar
     5     5     4  ar
     6    24     4  ar
     7     5     6  ar
     8    26     5  ar
     9    10     7   3
    10    20     8  ar
    11    20     9  ar
    12    21    10   1
    13    11    12  ar
    14    13    11  ar
    15    21    12  ar
    16    22    13  ar
    17    14    15  ar
    18    23    14  ar
    19    15    26  ar
    20    16    21  ar
    21    22    16  ar
    22    23    17  ar
    23    17    25  ar
    24    18    24  ar
    25    25    18  ar
    26    19    22   1
    27    24    19   1
    28    20    23   1
    29    25    26  ar
    30     2    27   1
    31     6    28   1
    32     7    29   1
    33    11    30   1
    34    12    31   1
    35    13    32   1
    36    14    33   1
    37    15    34   1
    38    16    35   1
    39    17    36   1
    40    19    37   1
@<TRIPOS>SUBSTRUCTURE
     1  E1B      2

