@<TRIPOS>MOLECULE
3pe2_ligand_026
    37    40
SMALL
GAST_HUCK
****
This file was generated by PARSER (from files_GN.cpp)

@<TRIPOS>ATOM
      1 N1         19.4200  -24.5311   15.4426 N.ar        1 E1B      -0.2566
      2 C2         20.4941  -23.7214   15.2915 C.ar        1 E1B       0.0922
      3 N3         21.0271  -23.1149   16.3761 N.ar        1 E1B      -0.2517
      4 C4         20.5156  -23.2850   17.6263 C.ar        1 E1B       0.1245
      5 C5         19.3790  -24.1260   17.8233 C.ar        1 E1B       0.0502
      6 C6         18.8634  -24.7487   16.6588 C.ar        1 E1B       0.0434
      7 CAA        21.9647  -17.4260   22.3503 C.1         1 E1B      -0.1140
      8 OAB        18.1660  -24.7615   24.2041 O.co2       1 E1B      -0.5601
      9 OAC        16.0338  -24.3689   23.4388 O.co2       1 E1B      -0.5601
     10 CAD        22.4794  -18.3455   21.7866 C.1         1 E1B      -0.0725
     11 CAE        24.9024  -20.8842   20.8426 C.ar        1 E1B      -0.0695
     12 CAG        24.3315  -19.7760   21.4967 C.ar        1 E1B      -0.0574
     13 CAH        24.1715  -21.5772   19.8608 C.ar        1 E1B      -0.0371
     14 CAI        17.1878  -25.1078   20.7604 C.ar        1 E1B      -0.0469
     15 CAJ        17.6766  -25.0284   19.4450 C.ar        1 E1B      -0.0482
     16 CAL        22.2918  -20.0566   20.1835 C.ar        1 E1B      -0.0223
     17 CAM        19.0019  -23.6924   21.5224 C.ar        1 E1B      -0.0324
     18 NAP        20.5714  -22.8272   19.9595 N.ar        1 E1B      -0.2773
     19 NAQ        22.1736  -21.8091   18.5521 N.pl3       1 E1B      -0.2490
     20 CAR        17.3485  -24.5221   23.1525 C.2         1 E1B       0.0639
     21 CAS        23.0204  -19.3606   21.1732 C.ar        1 E1B       0.0156
     22 CAT        22.8585  -21.1746   19.5372 C.ar        1 E1B       0.0678
     23 CAU        17.8433  -24.4438   21.8226 C.ar        1 E1B       0.0111
     24 CAV        21.1084  -22.6313   18.7291 C.ar        1 E1B       0.1682
     25 CAW        19.4861  -23.6012   20.2020 C.ar        1 E1B       0.0354
     26 CAY        18.8356  -24.2762   19.1322 C.ar        1 E1B       0.0121
     27 H1         20.8966  -23.5695   14.3656 H           1 E1B       0.1131
     28 H2         18.0604  -25.3745   16.6927 H           1 E1B       0.0992
     29 H3         21.5633  -16.7207   22.7883 H           1 E1B       0.1233
     30 H4         25.8552  -21.1778   21.0696 H           1 E1B       0.0590
     31 H5         24.8852  -19.2815   22.2034 H           1 E1B       0.0537
     32 H6         24.6082  -22.3623   19.3636 H           1 E1B       0.0543
     33 H7         16.3424  -25.6578   20.9312 H           1 E1B       0.0637
     34 H8         17.1536  -25.5204   18.7200 H           1 E1B       0.0642
     35 H9         21.3458  -19.7577   19.9303 H           1 E1B       0.0550
     36 H10        19.4941  -23.1841   22.2630 H           1 E1B       0.0650
     37 H11        22.4682  -21.6437   17.6438 H           1 E1B       0.2200
@<TRIPOS>BOND
     1     1     2  ar
     2     6     1  ar
     3     3     2  ar
     4     4     3  ar
     5     5     4  ar
     6    24     4  ar
     7     5     6  ar
     8    26     5  ar
     9    10     7   3
    10    20     8  ar
    11    20     9  ar
    12    21    10   1
    13    11    12  ar
    14    13    11  ar
    15    21    12  ar
    16    22    13  ar
    17    14    15  ar
    18    23    14  ar
    19    15    26  ar
    20    16    21  ar
    21    22    16  ar
    22    23    17  ar
    23    17    25  ar
    24    18    24  ar
    25    25    18  ar
    26    19    22   1
    27    24    19   1
    28    20    23   1
    29    25    26  ar
    30     2    27   1
    31     6    28   1
    32     7    29   1
    33    11    30   1
    34    12    31   1
    35    13    32   1
    36    14    33   1
    37    15    34   1
    38    16    35   1
    39    17    36   1
    40    19    37   1
@<TRIPOS>SUBSTRUCTURE
     1  E1B      2

