@<TRIPOS>MOLECULE
3pe2_ligand_006
    37    40
SMALL
GAST_HUCK
****
This file was generated by PARSER (from files_GN.cpp)

@<TRIPOS>ATOM
      1 N1         23.1188  -29.2269   21.5672 N.ar        1 E1B      -0.2566
      2 C2         23.3414  -29.7246   20.3270 C.ar        1 E1B       0.0922
      3 N3         22.5512  -30.7201   19.8503 N.ar        1 E1B      -0.2517
      4 C4         21.5277  -31.2471   20.5736 C.ar        1 E1B       0.1245
      5 C5         21.2600  -30.7462   21.8882 C.ar        1 E1B       0.0502
      6 C6         22.1139  -29.7022   22.3423 C.ar        1 E1B       0.0434
      7 CAA        21.6247  -29.3006   14.3462 C.1         1 E1B      -0.1140
      8 OAB        17.0241  -34.3397   25.2822 O.co2       1 E1B      -0.5601
      9 OAC        15.7938  -32.3897   25.0031 O.co2       1 E1B      -0.5601
     10 CAD        21.8939  -30.2205   15.0597 C.1         1 E1B      -0.0725
     11 CAE        23.5496  -33.1785   16.3626 C.ar        1 E1B      -0.0695
     12 CAG        23.2815  -32.0645   15.5507 C.ar        1 E1B      -0.0574
     13 CAH        22.7312  -33.4658   17.4728 C.ar        1 E1B      -0.0371
     14 CAI        18.7120  -31.4398   24.6194 C.ar        1 E1B      -0.0469
     15 CAJ        19.8028  -30.8587   23.9490 C.ar        1 E1B      -0.0482
     16 CAL        21.3734  -31.5016   16.9667 C.ar        1 E1B      -0.0223
     17 CAM        18.3995  -32.9917   22.7737 C.ar        1 E1B      -0.0324
     18 NAP        19.7677  -32.8147   20.8353 N.ar        1 E1B      -0.2773
     19 NAQ        20.8472  -32.9188   18.8417 N.pl3       1 E1B      -0.2490
     20 CAR        16.9022  -33.1100   24.7132 C.2         1 E1B       0.0639
     21 CAS        22.1735  -31.2258   15.8347 C.ar        1 E1B       0.0156
     22 CAT        21.6519  -32.6049   17.7973 C.ar        1 E1B       0.0678
     23 CAU        17.9960  -32.5149   24.0420 C.ar        1 E1B       0.0111
     24 CAV        20.7400  -32.3043   20.0474 C.ar        1 E1B       0.1682
     25 CAW        19.4616  -32.3776   22.0830 C.ar        1 E1B       0.0354
     26 CAY        20.1936  -31.3007   22.6552 C.ar        1 E1B       0.0121
     27 H1         24.1016  -29.3596   19.7503 H           1 E1B       0.1131
     28 H2         22.0120  -29.2801   23.2666 H           1 E1B       0.0992
     29 H3         21.4122  -28.5945   13.7926 H           1 E1B       0.1233
     30 H4         24.3424  -33.7872   16.1445 H           1 E1B       0.0590
     31 H5         23.8821  -31.8833   14.7377 H           1 E1B       0.0537
     32 H6         22.9301  -34.2882   18.0418 H           1 E1B       0.0543
     33 H7         18.4538  -31.0858   25.5461 H           1 E1B       0.0637
     34 H8         20.2860  -30.0921   24.4160 H           1 E1B       0.0642
     35 H9         20.5737  -30.9034   17.1870 H           1 E1B       0.0550
     36 H10        17.8991  -33.7692   22.3330 H           1 E1B       0.0650
     37 H11        20.2885  -33.6965   18.7208 H           1 E1B       0.2200
@<TRIPOS>BOND
     1     1     2  ar
     2     6     1  ar
     3     3     2  ar
     4     4     3  ar
     5     5     4  ar
     6    24     4  ar
     7     5     6  ar
     8    26     5  ar
     9    10     7   3
    10    20     8  ar
    11    20     9  ar
    12    21    10   1
    13    11    12  ar
    14    13    11  ar
    15    21    12  ar
    16    22    13  ar
    17    14    15  ar
    18    23    14  ar
    19    15    26  ar
    20    16    21  ar
    21    22    16  ar
    22    23    17  ar
    23    17    25  ar
    24    18    24  ar
    25    25    18  ar
    26    19    22   1
    27    24    19   1
    28    20    23   1
    29    25    26  ar
    30     2    27   1
    31     6    28   1
    32     7    29   1
    33    11    30   1
    34    12    31   1
    35    13    32   1
    36    14    33   1
    37    15    34   1
    38    16    35   1
    39    17    36   1
    40    19    37   1
@<TRIPOS>SUBSTRUCTURE
     1  E1B      2

