@<TRIPOS>MOLECULE
3pe2_ligand_025
    37    40
SMALL
GAST_HUCK
****
This file was generated by PARSER (from files_GN.cpp)

@<TRIPOS>ATOM
      1 N1         25.7994  -17.3177   10.1413 N.ar        1 E1B      -0.2566
      2 C2         26.3084  -18.5558    9.9382 C.ar        1 E1B       0.0922
      3 N3         25.7121  -19.6240   10.5132 N.ar        1 E1B      -0.2517
      4 C4         24.6057  -19.4987   11.2911 C.ar        1 E1B       0.1245
      5 C5         24.0333  -18.2106   11.5301 C.ar        1 E1B       0.0502
      6 C6         24.6961  -17.1219   10.9060 C.ar        1 E1B       0.0434
      7 CAA        21.4817  -26.7655   10.9600 C.1         1 E1B      -0.1140
      8 OAB        19.0891  -17.2337   15.6793 O.co2       1 E1B      -0.5601
      9 OAC        18.1983  -18.8648   14.2927 O.co2       1 E1B      -0.5601
     10 CAD        22.1639  -25.9803   11.5523 C.1         1 E1B      -0.0725
     11 CAE        23.8723  -24.3822   14.3231 C.ar        1 E1B      -0.0695
     12 CAG        23.1305  -25.3286   13.5909 C.ar        1 E1B      -0.0574
     13 CAH        24.3490  -23.2218   13.6889 C.ar        1 E1B      -0.0371
     14 CAI        21.0286  -16.8736   13.4181 C.ar        1 E1B      -0.0469
     15 CAJ        22.2032  -16.8828   12.6494 C.ar        1 E1B      -0.0482
     16 CAL        23.4032  -23.9768   11.5744 C.ar        1 E1B      -0.0223
     17 CAM        21.0894  -19.2936   13.5624 C.ar        1 E1B      -0.0324
     18 NAP        22.8946  -20.4878   12.6034 N.ar        1 E1B      -0.2773
     19 NAQ        24.5557  -21.8829   11.6943 N.pl3       1 E1B      -0.2490
     20 CAR        19.2409  -18.0636   14.6219 C.2         1 E1B       0.0639
     21 CAS        22.8877  -25.1260   12.2122 C.ar        1 E1B       0.0156
     22 CAT        24.1136  -23.0109   12.3140 C.ar        1 E1B       0.0678
     23 CAU        20.4415  -18.0757   13.8697 C.ar        1 E1B       0.0111
     24 CAV        24.0257  -20.6436   11.8744 C.ar        1 E1B       0.1682
     25 CAW        22.2882  -19.3005   12.8313 C.ar        1 E1B       0.0354
     26 CAY        22.8564  -18.0996   12.3238 C.ar        1 E1B       0.0121
     27 H1         27.1391  -18.6837    9.3632 H           1 E1B       0.1131
     28 H2         24.3655  -16.1613   11.0017 H           1 E1B       0.0992
     29 H3         20.9518  -27.3685   10.5024 H           1 E1B       0.1233
     30 H4         24.0486  -24.5340   15.3171 H           1 E1B       0.0590
     31 H5         22.7718  -26.1579   14.0729 H           1 E1B       0.0537
     32 H6         24.8780  -22.5364   14.2353 H           1 E1B       0.0543
     33 H7         20.5829  -15.9726   13.6286 H           1 E1B       0.0637
     34 H8         22.5700  -15.9875   12.3370 H           1 E1B       0.0642
     35 H9         23.2302  -23.8157   10.5746 H           1 E1B       0.0550
     36 H10        20.7004  -20.1814   13.9024 H           1 E1B       0.0650
     37 H11        25.2623  -21.9867   11.0308 H           1 E1B       0.2200
@<TRIPOS>BOND
     1     1     2  ar
     2     6     1  ar
     3     3     2  ar
     4     4     3  ar
     5     5     4  ar
     6    24     4  ar
     7     5     6  ar
     8    26     5  ar
     9    10     7   3
    10    20     8  ar
    11    20     9  ar
    12    21    10   1
    13    11    12  ar
    14    13    11  ar
    15    21    12  ar
    16    22    13  ar
    17    14    15  ar
    18    23    14  ar
    19    15    26  ar
    20    16    21  ar
    21    22    16  ar
    22    23    17  ar
    23    17    25  ar
    24    18    24  ar
    25    25    18  ar
    26    19    22   1
    27    24    19   1
    28    20    23   1
    29    25    26  ar
    30     2    27   1
    31     6    28   1
    32     7    29   1
    33    11    30   1
    34    12    31   1
    35    13    32   1
    36    14    33   1
    37    15    34   1
    38    16    35   1
    39    17    36   1
    40    19    37   1
@<TRIPOS>SUBSTRUCTURE
     1  E1B      2

