@<TRIPOS>MOLECULE
3pe2_ligand_008
    37    40
SMALL
GAST_HUCK
****
This file was generated by PARSER (from files_GN.cpp)

@<TRIPOS>ATOM
      1 N1         22.4486  -35.0528   20.2981 N.ar        1 E1B      -0.2566
      2 C2         23.0113  -33.8281   20.4111 C.ar        1 E1B       0.0922
      3 N3         22.4020  -32.8916   21.1721 N.ar        1 E1B      -0.2517
      4 C4         21.2313  -33.1350   21.8245 C.ar        1 E1B       0.1245
      5 C5         20.6021  -34.4098   21.7215 C.ar        1 E1B       0.0502
      6 C6         21.2882  -35.3639   20.9279 C.ar        1 E1B       0.0434
      7 CAA        20.1972  -28.3951   27.8350 C.1         1 E1B      -0.1140
      8 OAB        14.4698  -34.9035   23.8298 O.co2       1 E1B      -0.5601
      9 OAC        15.6575  -35.7540   25.6147 O.co2       1 E1B      -0.5601
     10 CAD        20.1995  -28.4946   26.6437 C.1         1 E1B      -0.0725
     11 CAE        20.0518  -27.4652   23.1692 C.ar        1 E1B      -0.0695
     12 CAG        19.9486  -27.4203   24.5712 C.ar        1 E1B      -0.0574
     13 CAH        20.4657  -28.6464   22.5318 C.ar        1 E1B      -0.0371
     14 CAI        17.3708  -35.9588   22.9858 C.ar        1 E1B      -0.0469
     15 CAJ        18.6047  -35.8287   22.3181 C.ar        1 E1B      -0.0482
     16 CAL        20.5982  -29.7706   24.6963 C.ar        1 E1B      -0.0223
     17 CAM        17.5807  -33.6901   23.8290 C.ar        1 E1B      -0.0324
     18 NAP        19.4617  -32.3711   23.2213 N.ar        1 E1B      -0.2773
     19 NAQ        21.2165  -30.8932   22.6433 N.pl3       1 E1B      -0.2490
     20 CAR        15.6518  -35.0389   24.4694 C.2         1 E1B       0.0639
     21 CAS        20.2247  -28.5705   25.3443 C.ar        1 E1B       0.0156
     22 CAT        20.7378  -29.8036   23.2893 C.ar        1 E1B       0.0678
     23 CAU        16.8535  -34.8949   23.7544 C.ar        1 E1B       0.0111
     24 CAV        20.6361  -32.1150   22.5929 C.ar        1 E1B       0.1682
     25 CAW        18.8100  -33.5575   23.1501 C.ar        1 E1B       0.0354
     26 CAY        19.3560  -34.6278   22.3840 C.ar        1 E1B       0.0121
     27 H1         23.8798  -33.6046   19.9224 H           1 E1B       0.1131
     28 H2         20.9278  -36.3059   20.7924 H           1 E1B       0.0992
     29 H3         20.2009  -28.3093   28.7523 H           1 E1B       0.1233
     30 H4         19.8487  -26.6319   22.6140 H           1 E1B       0.0590
     31 H5         19.6878  -26.5365   25.0195 H           1 E1B       0.0537
     32 H6         20.5579  -28.6618   21.5115 H           1 E1B       0.0543
     33 H7         16.8556  -36.8396   22.9131 H           1 E1B       0.0637
     34 H8         18.9354  -36.6292   21.7815 H           1 E1B       0.0642
     35 H9         20.8158  -30.6098   25.2439 H           1 E1B       0.0550
     36 H10        17.2156  -32.9023   24.3721 H           1 E1B       0.0650
     37 H11        21.9822  -30.7506   22.0642 H           1 E1B       0.2200
@<TRIPOS>BOND
     1     1     2  ar
     2     6     1  ar
     3     3     2  ar
     4     4     3  ar
     5     5     4  ar
     6    24     4  ar
     7     5     6  ar
     8    26     5  ar
     9    10     7   3
    10    20     8  ar
    11    20     9  ar
    12    21    10   1
    13    11    12  ar
    14    13    11  ar
    15    21    12  ar
    16    22    13  ar
    17    14    15  ar
    18    23    14  ar
    19    15    26  ar
    20    16    21  ar
    21    22    16  ar
    22    23    17  ar
    23    17    25  ar
    24    18    24  ar
    25    25    18  ar
    26    19    22   1
    27    24    19   1
    28    20    23   1
    29    25    26  ar
    30     2    27   1
    31     6    28   1
    32     7    29   1
    33    11    30   1
    34    12    31   1
    35    13    32   1
    36    14    33   1
    37    15    34   1
    38    16    35   1
    39    17    36   1
    40    19    37   1
@<TRIPOS>SUBSTRUCTURE
     1  E1B      2

