@<TRIPOS>MOLECULE
3pe2_ligand_015
    37    40
SMALL
GAST_HUCK
****
This file was generated by PARSER (from files_GN.cpp)

@<TRIPOS>ATOM
      1 N1         17.4585  -37.6880   21.6745 N.ar        1 E1B      -0.2566
      2 C2         18.6783  -37.1782   21.4037 C.ar        1 E1B       0.0922
      3 N3         19.0557  -36.0157   21.9896 N.ar        1 E1B      -0.2517
      4 C4         18.2625  -35.3276   22.8569 C.ar        1 E1B       0.1245
      5 C5         16.9557  -35.8395   23.1394 C.ar        1 E1B       0.0502
      6 C6         16.6027  -37.0585   22.5084 C.ar        1 E1B       0.0434
      7 CAA        23.8549  -37.0909   21.0977 C.1         1 E1B      -0.1140
      8 OAB        12.3593  -32.8566   26.6750 O.co2       1 E1B      -0.5601
      9 OAC        14.2868  -32.0664   27.6974 O.co2       1 E1B      -0.5601
     10 CAD        23.2690  -36.0580   21.2472 C.1         1 E1B      -0.0725
     11 CAE        22.1936  -32.6584   20.6049 C.ar        1 E1B      -0.0695
     12 CAG        22.9091  -33.8661   20.4990 C.ar        1 E1B      -0.0574
     13 CAH        21.1701  -32.5281   21.5645 C.ar        1 E1B      -0.0371
     14 CAI        13.9779  -34.7513   25.2188 C.ar        1 E1B      -0.0469
     15 CAJ        14.7573  -35.5039   24.3227 C.ar        1 E1B      -0.0482
     16 CAL        21.6386  -34.7780   22.3755 C.ar        1 E1B      -0.0223
     17 CAM        15.8302  -33.2244   25.5576 C.ar        1 E1B      -0.0324
     18 NAP        17.8572  -33.5298   24.3507 N.ar        1 E1B      -0.2773
     19 NAQ        19.8529  -33.4231   23.3183 N.pl3       1 E1B      -0.2490
     20 CAR        13.7140  -32.8432   26.7436 C.2         1 E1B       0.0639
     21 CAS        22.6315  -34.9337   21.3782 C.ar        1 E1B       0.0156
     22 CAT        20.8525  -33.6057   22.4194 C.ar        1 E1B       0.0678
     23 CAU        14.4996  -33.5999   25.8460 C.ar        1 E1B       0.0111
     24 CAV        18.7029  -34.1304   23.4851 C.ar        1 E1B       0.1682
     25 CAW        16.6070  -33.9629   24.6479 C.ar        1 E1B       0.0354
     26 CAY        16.0935  -35.1290   24.0203 C.ar        1 E1B       0.0121
     27 H1         19.3087  -37.6707   20.7715 H           1 E1B       0.1131
     28 H2         15.7025  -37.5074   22.6627 H           1 E1B       0.0992
     29 H3         24.3086  -37.8837   20.9787 H           1 E1B       0.1233
     30 H4         22.4058  -31.8833   19.9739 H           1 E1B       0.0590
     31 H5         23.6399  -33.9423   19.7876 H           1 E1B       0.0537
     32 H6         20.6487  -31.6496   21.6218 H           1 E1B       0.0543
     33 H7         13.0214  -35.0694   25.4198 H           1 E1B       0.0637
     34 H8         14.3155  -36.3177   23.8937 H           1 E1B       0.0642
     35 H9         21.4672  -35.5257   23.0608 H           1 E1B       0.0550
     36 H10        16.2361  -32.3880   25.9904 H           1 E1B       0.0650
     37 H11        19.8713  -32.5709   23.7868 H           1 E1B       0.2200
@<TRIPOS>BOND
     1     1     2  ar
     2     6     1  ar
     3     3     2  ar
     4     4     3  ar
     5     5     4  ar
     6    24     4  ar
     7     5     6  ar
     8    26     5  ar
     9    10     7   3
    10    20     8  ar
    11    20     9  ar
    12    21    10   1
    13    11    12  ar
    14    13    11  ar
    15    21    12  ar
    16    22    13  ar
    17    14    15  ar
    18    23    14  ar
    19    15    26  ar
    20    16    21  ar
    21    22    16  ar
    22    23    17  ar
    23    17    25  ar
    24    18    24  ar
    25    25    18  ar
    26    19    22   1
    27    24    19   1
    28    20    23   1
    29    25    26  ar
    30     2    27   1
    31     6    28   1
    32     7    29   1
    33    11    30   1
    34    12    31   1
    35    13    32   1
    36    14    33   1
    37    15    34   1
    38    16    35   1
    39    17    36   1
    40    19    37   1
@<TRIPOS>SUBSTRUCTURE
     1  E1B      2

