@<TRIPOS>MOLECULE
3pe2_ligand_057
    37    40
SMALL
GAST_HUCK
****
This file was generated by PARSER (from files_GN.cpp)

@<TRIPOS>ATOM
      1 N1         24.7237  -29.5282   14.4944 N.ar        1 E1B      -0.2566
      2 C2         24.9543  -28.1998   14.5367 C.ar        1 E1B       0.0922
      3 N3         24.3219  -27.3659   13.6561 N.ar        1 E1B      -0.2517
      4 C4         23.4412  -27.8311   12.7236 C.ar        1 E1B       0.1245
      5 C5         23.1592  -29.2345   12.6760 C.ar        1 E1B       0.0502
      6 C6         23.8454  -30.0545   13.5992 C.ar        1 E1B       0.0434
      7 CAA        23.7707  -21.1153   15.2349 C.1         1 E1B      -0.1140
      8 OAB        18.7606  -32.2539    8.8521 O.co2       1 E1B      -0.5601
      9 OAC        18.3997  -30.0023    8.4228 O.co2       1 E1B      -0.5601
     10 CAD        24.1231  -21.9574   14.4648 C.1         1 E1B      -0.0725
     11 CAE        26.2594  -24.2020   12.5704 C.ar        1 E1B      -0.0695
     12 CAG        25.8658  -23.1315   13.3946 C.ar        1 E1B      -0.0574
     13 CAH        25.2869  -25.0286   11.9849 C.ar        1 E1B      -0.0371
     14 CAI        20.9785  -31.5233   10.5926 C.ar        1 E1B      -0.0469
     15 CAJ        21.9405  -31.0959   11.5201 C.ar        1 E1B      -0.0482
     16 CAL        23.5221  -23.7304   13.0469 C.ar        1 E1B      -0.0223
     17 CAM        20.4562  -29.2041   10.0848 C.ar        1 E1B      -0.0324
     18 NAP        21.8074  -27.4650   11.0323 N.ar        1 E1B      -0.2773
     19 NAQ        22.9684  -25.6087   11.6768 N.pl3       1 E1B      -0.2490
     20 CAR        19.1741  -30.9658    8.9917 C.2         1 E1B       0.0639
     21 CAS        24.4931  -22.8927   13.6451 C.ar        1 E1B       0.0156
     22 CAT        23.9175  -24.8136   12.2283 C.ar        1 E1B       0.0678
     23 CAU        20.2019  -30.5767    9.8834 C.ar        1 E1B       0.0111
     24 CAV        22.7722  -26.9455   11.8296 C.ar        1 E1B       0.1682
     25 CAW        21.4806  -28.7851   10.9646 C.ar        1 E1B       0.0354
     26 CAY        22.2039  -29.7232   11.7422 C.ar        1 E1B       0.0121
     27 H1         25.6069  -27.8314   15.2217 H           1 E1B       0.1131
     28 H2         23.6807  -31.0631   13.6725 H           1 E1B       0.0992
     29 H3         23.4945  -20.4694   15.8357 H           1 E1B       0.1233
     30 H4         27.2516  -24.4215   12.4612 H           1 E1B       0.0590
     31 H5         26.5863  -22.5562   13.8400 H           1 E1B       0.0537
     32 H6         25.5913  -25.8109   11.3966 H           1 E1B       0.0543
     33 H7         20.8310  -32.5285   10.4649 H           1 E1B       0.0637
     34 H8         22.4738  -31.8192   12.0088 H           1 E1B       0.0642
     35 H9         22.5245  -23.5798   13.2369 H           1 E1B       0.0550
     36 H10        19.9291  -28.5032    9.5554 H           1 E1B       0.0650
     37 H11        22.3617  -25.1547   11.0685 H           1 E1B       0.2200
@<TRIPOS>BOND
     1     1     2  ar
     2     6     1  ar
     3     3     2  ar
     4     4     3  ar
     5     5     4  ar
     6    24     4  ar
     7     5     6  ar
     8    26     5  ar
     9    10     7   3
    10    20     8  ar
    11    20     9  ar
    12    21    10   1
    13    11    12  ar
    14    13    11  ar
    15    21    12  ar
    16    22    13  ar
    17    14    15  ar
    18    23    14  ar
    19    15    26  ar
    20    16    21  ar
    21    22    16  ar
    22    23    17  ar
    23    17    25  ar
    24    18    24  ar
    25    25    18  ar
    26    19    22   1
    27    24    19   1
    28    20    23   1
    29    25    26  ar
    30     2    27   1
    31     6    28   1
    32     7    29   1
    33    11    30   1
    34    12    31   1
    35    13    32   1
    36    14    33   1
    37    15    34   1
    38    16    35   1
    39    17    36   1
    40    19    37   1
@<TRIPOS>SUBSTRUCTURE
     1  E1B      2

