@<TRIPOS>MOLECULE
3pe2_ligand_033
    37    40
SMALL
GAST_HUCK
****
This file was generated by PARSER (from files_GN.cpp)

@<TRIPOS>ATOM
      1 N1         19.5164  -30.7402   26.2070 N.ar        1 E1B      -0.2566
      2 C2         20.5259  -30.7960   25.3007 C.ar        1 E1B       0.0922
      3 N3         20.4370  -30.0853   24.1428 N.ar        1 E1B      -0.2517
      4 C4         19.3666  -29.2898   23.8581 C.ar        1 E1B       0.1245
      5 C5         18.3054  -29.1742   24.8082 C.ar        1 E1B       0.0502
      6 C6         18.4312  -29.9600   25.9813 C.ar        1 E1B       0.0434
      7 CAA        22.0481  -34.1141   21.5614 C.1         1 E1B      -0.1140
      8 OAB        14.3529  -24.4814   22.6743 O.co2       1 E1B      -0.5601
      9 OAC        12.9643  -25.4424   24.2594 O.co2       1 E1B      -0.5601
     10 CAD        22.1364  -32.9383   21.3761 C.1         1 E1B      -0.0725
     11 CAE        23.5726  -29.6805   20.6631 C.ar        1 E1B      -0.0695
     12 CAG        23.4692  -31.0732   20.8209 C.ar        1 E1B      -0.0574
     13 CAH        22.4654  -28.8513   20.9246 C.ar        1 E1B      -0.0371
     14 CAI        15.0951  -27.1798   25.0779 C.ar        1 E1B      -0.0469
     15 CAJ        16.1120  -28.0942   25.3994 C.ar        1 E1B      -0.0482
     16 CAL        21.1179  -30.8137   21.4266 C.ar        1 E1B      -0.0223
     17 CAM        16.2777  -26.5673   23.0483 C.ar        1 E1B      -0.0324
     18 NAP        18.3005  -27.6846   22.4803 N.ar        1 E1B      -0.2773
     19 NAQ        20.1989  -28.5667   21.6124 N.pl3       1 E1B      -0.2490
     20 CAR        14.1526  -25.4550   23.5998 C.2         1 E1B       0.0639
     21 CAS        22.2366  -31.6524   21.1979 C.ar        1 E1B       0.0156
     22 CAT        21.2386  -29.4047   21.3516 C.ar        1 E1B       0.0678
     23 CAU        15.1675  -26.3952   23.9074 C.ar        1 E1B       0.0111
     24 CAV        19.3224  -28.5541   22.6481 C.ar        1 E1B       0.1682
     25 CAW        17.2811  -27.5077   23.3538 C.ar        1 E1B       0.0354
     26 CAY        17.2241  -28.2812   24.5448 C.ar        1 E1B       0.0121
     27 H1         21.3464  -31.3785   25.4809 H           1 E1B       0.1131
     28 H2         17.7179  -29.9550   26.7077 H           1 E1B       0.0992
     29 H3         21.9759  -35.0234   21.7079 H           1 E1B       0.1233
     30 H4         24.4612  -29.2652   20.3627 H           1 E1B       0.0590
     31 H5         24.2936  -31.6552   20.6526 H           1 E1B       0.0537
     32 H6         22.5666  -27.8365   20.8260 H           1 E1B       0.0543
     33 H7         14.3074  -27.0737   25.7185 H           1 E1B       0.0637
     34 H8         16.0085  -28.6094   26.2651 H           1 E1B       0.0642
     35 H9         20.2133  -31.2258   21.6666 H           1 E1B       0.0550
     36 H10        16.3609  -26.0215   22.1857 H           1 E1B       0.0650
     37 H11        20.0761  -27.8569   20.9618 H           1 E1B       0.2200
@<TRIPOS>BOND
     1     1     2  ar
     2     6     1  ar
     3     3     2  ar
     4     4     3  ar
     5     5     4  ar
     6    24     4  ar
     7     5     6  ar
     8    26     5  ar
     9    10     7   3
    10    20     8  ar
    11    20     9  ar
    12    21    10   1
    13    11    12  ar
    14    13    11  ar
    15    21    12  ar
    16    22    13  ar
    17    14    15  ar
    18    23    14  ar
    19    15    26  ar
    20    16    21  ar
    21    22    16  ar
    22    23    17  ar
    23    17    25  ar
    24    18    24  ar
    25    25    18  ar
    26    19    22   1
    27    24    19   1
    28    20    23   1
    29    25    26  ar
    30     2    27   1
    31     6    28   1
    32     7    29   1
    33    11    30   1
    34    12    31   1
    35    13    32   1
    36    14    33   1
    37    15    34   1
    38    16    35   1
    39    17    36   1
    40    19    37   1
@<TRIPOS>SUBSTRUCTURE
     1  E1B      2

