@<TRIPOS>MOLECULE
3pe2_ligand_022
    37    40
SMALL
GAST_HUCK
****
This file was generated by PARSER (from files_GN.cpp)

@<TRIPOS>ATOM
      1 N1         14.9364  -32.5821   26.6506 N.ar        1 E1B      -0.2566
      2 C2         15.8336  -33.4301   26.0946 C.ar        1 E1B       0.0922
      3 N3         16.5955  -33.0074   25.0581 N.ar        1 E1B      -0.2517
      4 C4         16.4962  -31.7543   24.5468 C.ar        1 E1B       0.1245
      5 C5         15.5618  -30.8305   25.1037 C.ar        1 E1B       0.0502
      6 C6         14.7833  -31.3152   26.1902 C.ar        1 E1B       0.0434
      7 CAA        23.5244  -30.6999   21.0801 C.1         1 E1B      -0.1140
      8 OAB        16.5039  -24.7290   22.9983 O.co2       1 E1B      -0.5601
      9 OAC        14.4425  -25.1644   22.0354 O.co2       1 E1B      -0.5601
     10 CAD        22.3905  -31.0698   20.9767 C.1         1 E1B      -0.0725
     11 CAE        19.3248  -32.2577   19.4342 C.ar        1 E1B      -0.0695
     12 CAG        20.6456  -31.7932   19.5697 C.ar        1 E1B      -0.0574
     13 CAH        18.5084  -32.4003   20.5728 C.ar        1 E1B      -0.0371
     14 CAI        14.5622  -27.2331   24.4000 C.ar        1 E1B      -0.0469
     15 CAJ        14.5665  -28.5141   24.9845 C.ar        1 E1B      -0.0482
     16 CAL        20.3319  -31.6199   21.9835 C.ar        1 E1B      -0.0223
     17 CAM        16.3933  -27.8813   22.9517 C.ar        1 E1B      -0.0324
     18 NAP        17.2306  -30.0970   23.0167 N.ar        1 E1B      -0.2773
     19 NAQ        18.2016  -32.2538   22.9363 N.pl3       1 E1B      -0.2490
     20 CAR        15.4790  -25.6003   22.8074 C.2         1 E1B       0.0639
     21 CAS        21.1596  -31.4789   20.8494 C.ar        1 E1B       0.0156
     22 CAT        18.9979  -32.0551   21.8534 C.ar        1 E1B       0.0678
     23 CAU        15.4836  -26.8944   23.3865 C.ar        1 E1B       0.0111
     24 CAV        17.3283  -31.3646   23.4785 C.ar        1 E1B       0.1682
     25 CAW        16.3781  -29.1711   23.5070 C.ar        1 E1B       0.0354
     26 CAY        15.4764  -29.5138   24.5550 C.ar        1 E1B       0.0121
     27 H1         15.9327  -34.3900   26.4449 H           1 E1B       0.1131
     28 H2         14.0961  -30.7275   26.6683 H           1 E1B       0.0992
     29 H3         24.3962  -30.4108   21.1678 H           1 E1B       0.1233
     30 H4         18.9643  -32.4978   18.5116 H           1 E1B       0.0590
     31 H5         21.2351  -31.7045   18.7319 H           1 E1B       0.0537
     32 H6         17.5575  -32.7638   20.4564 H           1 E1B       0.0543
     33 H7         13.8861  -26.5285   24.7375 H           1 E1B       0.0637
     34 H8         13.8742  -28.6951   25.7127 H           1 E1B       0.0642
     35 H9         20.6937  -31.4127   22.9263 H           1 E1B       0.0550
     36 H10        17.0580  -27.6747   22.1955 H           1 E1B       0.0650
     37 H11        18.2148  -33.1601   23.3174 H           1 E1B       0.2200
@<TRIPOS>BOND
     1     1     2  ar
     2     6     1  ar
     3     3     2  ar
     4     4     3  ar
     5     5     4  ar
     6    24     4  ar
     7     5     6  ar
     8    26     5  ar
     9    10     7   3
    10    20     8  ar
    11    20     9  ar
    12    21    10   1
    13    11    12  ar
    14    13    11  ar
    15    21    12  ar
    16    22    13  ar
    17    14    15  ar
    18    23    14  ar
    19    15    26  ar
    20    16    21  ar
    21    22    16  ar
    22    23    17  ar
    23    17    25  ar
    24    18    24  ar
    25    25    18  ar
    26    19    22   1
    27    24    19   1
    28    20    23   1
    29    25    26  ar
    30     2    27   1
    31     6    28   1
    32     7    29   1
    33    11    30   1
    34    12    31   1
    35    13    32   1
    36    14    33   1
    37    15    34   1
    38    16    35   1
    39    17    36   1
    40    19    37   1
@<TRIPOS>SUBSTRUCTURE
     1  E1B      2

