@<TRIPOS>MOLECULE
3pe2_ligand_041
    37    40
SMALL
GAST_HUCK
****
This file was generated by PARSER (from files_GN.cpp)

@<TRIPOS>ATOM
      1 N1         21.9727  -35.6815   21.5428 N.ar        1 E1B      -0.2566
      2 C2         22.5044  -36.1129   20.3757 C.ar        1 E1B       0.0922
      3 N3         22.7271  -35.2256   19.3795 N.ar        1 E1B      -0.2517
      4 C4         22.4330  -33.9055   19.5108 C.ar        1 E1B       0.1245
      5 C5         21.8622  -33.4143   20.7212 C.ar        1 E1B       0.0502
      6 C6         21.6483  -34.3804   21.7378 C.ar        1 E1B       0.0434
      7 CAA        21.1862  -29.8903   13.1204 C.1         1 E1B      -0.1140
      8 OAB        21.5624  -26.9251   20.2938 O.co2       1 E1B      -0.5601
      9 OAC        19.7875  -27.3066   21.7261 O.co2       1 E1B      -0.5601
     10 CAD        21.9692  -30.6003   13.6763 C.1         1 E1B      -0.0725
     11 CAE        24.9649  -32.5683   14.1968 C.ar        1 E1B      -0.0695
     12 CAG        24.0419  -31.6900   13.6000 C.ar        1 E1B      -0.0574
     13 CAH        24.6817  -33.1418   15.4473 C.ar        1 E1B      -0.0371
     14 CAI        20.6883  -30.0425   22.0024 C.ar        1 E1B      -0.0469
     15 CAJ        20.9505  -31.4251   21.9694 C.ar        1 E1B      -0.0482
     16 CAL        22.5576  -31.9500   15.5215 C.ar        1 E1B      -0.0223
     17 CAM        21.6336  -29.8005   19.7839 C.ar        1 E1B      -0.0324
     18 NAP        22.4021  -31.7068   18.6043 N.ar        1 E1B      -0.2773
     19 NAQ        23.2417  -33.4920   17.2945 N.pl3       1 E1B      -0.2490
     20 CAR        20.7833  -27.8155   20.9603 C.2         1 E1B       0.0639
     21 CAS        22.8325  -31.3807   14.2569 C.ar        1 E1B       0.0156
     22 CAT        23.4890  -32.8279   16.1300 C.ar        1 E1B       0.0678
     23 CAU        21.0408  -29.2084   20.9184 C.ar        1 E1B       0.0111
     24 CAV        22.6832  -33.0229   18.4367 C.ar        1 E1B       0.1682
     25 CAW        21.8657  -31.1871   19.7347 C.ar        1 E1B       0.0354
     26 CAY        21.5512  -32.0300   20.8385 C.ar        1 E1B       0.0121
     27 H1         22.7353  -37.0979   20.2467 H           1 E1B       0.1131
     28 H2         21.2468  -34.1311   22.6398 H           1 E1B       0.0992
     29 H3         20.5815  -29.3450   12.6888 H           1 E1B       0.1233
     30 H4         25.8337  -32.8066   13.7127 H           1 E1B       0.0590
     31 H5         24.2569  -31.3059   12.6733 H           1 E1B       0.0537
     32 H6         25.3566  -33.7927   15.8546 H           1 E1B       0.0543
     33 H7         20.2538  -29.6485   22.8415 H           1 E1B       0.0637
     34 H8         20.6786  -31.9765   22.7860 H           1 E1B       0.0642
     35 H9         21.6549  -31.7828   15.9763 H           1 E1B       0.0550
     36 H10        21.8798  -29.2311   18.9687 H           1 E1B       0.0650
     37 H11        23.5518  -34.4086   17.3241 H           1 E1B       0.2200
@<TRIPOS>BOND
     1     1     2  ar
     2     6     1  ar
     3     3     2  ar
     4     4     3  ar
     5     5     4  ar
     6    24     4  ar
     7     5     6  ar
     8    26     5  ar
     9    10     7   3
    10    20     8  ar
    11    20     9  ar
    12    21    10   1
    13    11    12  ar
    14    13    11  ar
    15    21    12  ar
    16    22    13  ar
    17    14    15  ar
    18    23    14  ar
    19    15    26  ar
    20    16    21  ar
    21    22    16  ar
    22    23    17  ar
    23    17    25  ar
    24    18    24  ar
    25    25    18  ar
    26    19    22   1
    27    24    19   1
    28    20    23   1
    29    25    26  ar
    30     2    27   1
    31     6    28   1
    32     7    29   1
    33    11    30   1
    34    12    31   1
    35    13    32   1
    36    14    33   1
    37    15    34   1
    38    16    35   1
    39    17    36   1
    40    19    37   1
@<TRIPOS>SUBSTRUCTURE
     1  E1B      2

