@<TRIPOS>MOLECULE
3pe2_ligand_050
    37    40
SMALL
GAST_HUCK
****
This file was generated by PARSER (from files_GN.cpp)

@<TRIPOS>ATOM
      1 N1         24.2370  -20.4304   15.2840 N.ar        1 E1B      -0.2566
      2 C2         23.7970  -19.4833   14.4282 C.ar        1 E1B       0.0922
      3 N3         23.1926  -19.8675   13.2829 N.ar        1 E1B      -0.2517
      4 C4         22.9800  -21.1706   12.9521 C.ar        1 E1B       0.1245
      5 C5         23.4153  -22.1898   13.8484 C.ar        1 E1B       0.0502
      6 C6         24.0475  -21.7468   15.0383 C.ar        1 E1B       0.0434
      7 CAA        24.6147  -15.6647    9.4178 C.1         1 E1B      -0.1140
      8 OAB        22.9939  -28.6578   13.0561 O.co2       1 E1B      -0.5601
      9 OAC        21.6037  -27.9537   11.3664 O.co2       1 E1B      -0.5601
     10 CAD        23.7777  -16.3655    9.9036 C.1         1 E1B      -0.0725
     11 CAE        20.8604  -17.2984   11.8417 C.ar        1 E1B      -0.0695
     12 CAG        21.8574  -16.5093   11.2421 C.ar        1 E1B      -0.0574
     13 CAH        20.8481  -18.6909   11.6444 C.ar        1 E1B      -0.0371
     14 CAI        23.3502  -25.9734   13.9505 C.ar        1 E1B      -0.0469
     15 CAJ        23.5964  -24.6447   14.3314 C.ar        1 E1B      -0.0482
     16 CAL        22.8387  -18.5123   10.2460 C.ar        1 E1B      -0.0223
     17 CAM        22.3000  -25.1948   11.9094 C.ar        1 E1B      -0.0324
     18 NAP        22.1880  -22.8423   11.4526 N.ar        1 E1B      -0.2773
     19 NAQ        21.9018  -20.6674   10.7683 N.pl3       1 E1B      -0.2490
     20 CAR        22.4321  -27.6256   12.3843 C.2         1 E1B       0.0639
     21 CAS        22.8506  -17.1110   10.4395 C.ar        1 E1B       0.0156
     22 CAT        21.8434  -19.3084   10.8551 C.ar        1 E1B       0.0678
     23 CAU        22.6894  -26.2746   12.7393 C.ar        1 E1B       0.0111
     24 CAV        22.3545  -21.5224   11.7271 C.ar        1 E1B       0.1682
     25 CAW        22.5628  -23.8557   12.2787 C.ar        1 E1B       0.0354
     26 CAY        23.2051  -23.5572   13.5123 C.ar        1 E1B       0.0121
     27 H1         23.9417  -18.4947   14.6307 H           1 E1B       0.1131
     28 H2         24.3955  -22.3941   15.7396 H           1 E1B       0.0992
     29 H3         25.2559  -15.1177    9.0433 H           1 E1B       0.1233
     30 H4         20.1560  -16.8634   12.4402 H           1 E1B       0.0590
     31 H5         21.8519  -15.4984   11.4080 H           1 E1B       0.0537
     32 H6         20.1349  -19.2569   12.1080 H           1 E1B       0.0543
     33 H7         23.6519  -26.7216   14.5809 H           1 E1B       0.0637
     34 H8         24.0664  -24.5021   15.2229 H           1 E1B       0.0642
     35 H9         23.5758  -18.9633    9.6931 H           1 E1B       0.0550
     36 H10        21.8127  -25.3782   11.0280 H           1 E1B       0.0650
     37 H11        21.5699  -21.0638    9.9445 H           1 E1B       0.2200
@<TRIPOS>BOND
     1     1     2  ar
     2     6     1  ar
     3     3     2  ar
     4     4     3  ar
     5     5     4  ar
     6    24     4  ar
     7     5     6  ar
     8    26     5  ar
     9    10     7   3
    10    20     8  ar
    11    20     9  ar
    12    21    10   1
    13    11    12  ar
    14    13    11  ar
    15    21    12  ar
    16    22    13  ar
    17    14    15  ar
    18    23    14  ar
    19    15    26  ar
    20    16    21  ar
    21    22    16  ar
    22    23    17  ar
    23    17    25  ar
    24    18    24  ar
    25    25    18  ar
    26    19    22   1
    27    24    19   1
    28    20    23   1
    29    25    26  ar
    30     2    27   1
    31     6    28   1
    32     7    29   1
    33    11    30   1
    34    12    31   1
    35    13    32   1
    36    14    33   1
    37    15    34   1
    38    16    35   1
    39    17    36   1
    40    19    37   1
@<TRIPOS>SUBSTRUCTURE
     1  E1B      2

