@<TRIPOS>MOLECULE
3pe2_ligand_007
    37    40
SMALL
GAST_HUCK
****
This file was generated by PARSER (from files_GN.cpp)

@<TRIPOS>ATOM
      1 N1         24.8556  -29.7866   19.6395 N.ar        1 E1B      -0.2566
      2 C2         24.3574  -28.5308   19.5431 C.ar        1 E1B       0.0922
      3 N3         23.1142  -28.2602   20.0077 N.ar        1 E1B      -0.2517
      4 C4         22.3182  -29.2194   20.5556 C.ar        1 E1B       0.1245
      5 C5         22.8113  -30.5599   20.6679 C.ar        1 E1B       0.0502
      6 C6         24.1219  -30.7841   20.1849 C.ar        1 E1B       0.0434
      7 CAA        23.1777  -25.0186   16.6903 C.1         1 E1B      -0.1140
      8 OAB        18.2391  -34.7191   22.7228 O.co2       1 E1B      -0.5601
      9 OAC        19.9616  -35.0963   24.2457 O.co2       1 E1B      -0.5601
     10 CAD        22.4967  -25.0529   17.6717 C.1         1 E1B      -0.0725
     11 CAE        20.9606  -24.0632   20.8111 C.ar        1 E1B      -0.0695
     12 CAG        21.6232  -23.9631   19.5734 C.ar        1 E1B      -0.0574
     13 CAH        20.5339  -25.3222   21.2817 C.ar        1 E1B      -0.0371
     14 CAI        21.5426  -33.8586   22.0327 C.ar        1 E1B      -0.0469
     15 CAJ        22.3809  -32.9284   21.3987 C.ar        1 E1B      -0.0482
     16 CAL        21.3225  -26.3658   19.2299 C.ar        1 E1B      -0.0223
     17 CAM        19.8616  -32.1310   22.3436 C.ar        1 E1B      -0.0324
     18 NAP        20.2994  -29.8987   21.6037 N.ar        1 E1B      -0.2773
     19 NAQ        20.3760  -27.6961   21.0431 N.pl3       1 E1B      -0.2490
     20 CAR        19.4657  -34.3921   23.1999 C.2         1 E1B       0.0639
     21 CAS        21.7952  -25.1145   18.7703 C.ar        1 E1B       0.0156
     22 CAT        20.7542  -26.4951   20.5176 C.ar        1 E1B       0.0678
     23 CAU        20.2775  -33.4661   22.5159 C.ar        1 E1B       0.0111
     24 CAV        21.0150  -28.8992   21.0336 C.ar        1 E1B       0.1682
     25 CAW        20.7136  -31.1901   21.7303 C.ar        1 E1B       0.0354
     26 CAY        21.9993  -31.5703   21.2557 C.ar        1 E1B       0.0121
     27 H1         24.9252  -27.7946   19.1137 H           1 E1B       0.1131
     28 H2         24.5636  -31.7036   20.2177 H           1 E1B       0.0992
     29 H3         23.7180  -24.9964   15.9409 H           1 E1B       0.1233
     30 H4         20.8313  -23.2351   21.3857 H           1 E1B       0.0590
     31 H5         21.9882  -23.0554   19.2761 H           1 E1B       0.0537
     32 H6         20.0947  -25.3838   22.2039 H           1 E1B       0.0543
     33 H7         21.8626  -34.8265   22.1232 H           1 E1B       0.0637
     34 H8         23.2865  -33.2672   21.0676 H           1 E1B       0.0642
     35 H9         21.4280  -27.1977   18.6453 H           1 E1B       0.0550
     36 H10        18.9442  -31.8300   22.6839 H           1 E1B       0.0650
     37 H11        19.5603  -27.6714   21.5569 H           1 E1B       0.2200
@<TRIPOS>BOND
     1     1     2  ar
     2     6     1  ar
     3     3     2  ar
     4     4     3  ar
     5     5     4  ar
     6    24     4  ar
     7     5     6  ar
     8    26     5  ar
     9    10     7   3
    10    20     8  ar
    11    20     9  ar
    12    21    10   1
    13    11    12  ar
    14    13    11  ar
    15    21    12  ar
    16    22    13  ar
    17    14    15  ar
    18    23    14  ar
    19    15    26  ar
    20    16    21  ar
    21    22    16  ar
    22    23    17  ar
    23    17    25  ar
    24    18    24  ar
    25    25    18  ar
    26    19    22   1
    27    24    19   1
    28    20    23   1
    29    25    26  ar
    30     2    27   1
    31     6    28   1
    32     7    29   1
    33    11    30   1
    34    12    31   1
    35    13    32   1
    36    14    33   1
    37    15    34   1
    38    16    35   1
    39    17    36   1
    40    19    37   1
@<TRIPOS>SUBSTRUCTURE
     1  E1B      2

