@<TRIPOS>MOLECULE
3pe2_ligand_043
    37    40
SMALL
GAST_HUCK
****
This file was generated by PARSER (from files_GN.cpp)

@<TRIPOS>ATOM
      1 N1         17.0912  -36.4947   22.6509 N.ar        1 E1B      -0.2566
      2 C2         18.3864  -36.1050   22.6404 C.ar        1 E1B       0.0922
      3 N3         18.7559  -35.0082   23.3448 N.ar        1 E1B      -0.2517
      4 C4         17.8620  -34.2799   24.0728 C.ar        1 E1B       0.1245
      5 C5         16.4839  -34.6534   24.1043 C.ar        1 E1B       0.0502
      6 C6         16.1489  -35.8011   23.3400 C.ar        1 E1B       0.0434
      7 CAA        20.3466  -27.0527   24.0132 C.1         1 E1B      -0.1140
      8 OAB        13.3432  -31.1553   28.6153 O.co2       1 E1B      -0.5601
      9 OAC        11.8261  -31.0069   26.8764 O.co2       1 E1B      -0.5601
     10 CAD        20.4662  -28.0952   24.5780 C.1         1 E1B      -0.0725
     11 CAE        21.4992  -30.5839   27.0245 C.ar        1 E1B      -0.0695
     12 CAG        21.3423  -29.3362   26.3884 C.ar        1 E1B      -0.0574
     13 CAH        20.9011  -31.7392   26.4804 C.ar        1 E1B      -0.0371
     14 CAI        13.3333  -33.3243   25.7597 C.ar        1 E1B      -0.0469
     15 CAJ        14.1745  -34.1334   24.9717 C.ar        1 E1B      -0.0482
     16 CAL        19.9996  -30.4037   24.6498 C.ar        1 E1B      -0.0223
     17 CAM        15.2505  -32.0169   26.4664 C.ar        1 E1B      -0.0324
     18 NAP        17.4022  -32.4751   25.5548 N.ar        1 E1B      -0.2773
     19 NAQ        19.6057  -32.7669   24.7204 N.pl3       1 E1B      -0.2490
     20 CAR        13.0112  -31.4691   27.3405 C.2         1 E1B       0.0639
     21 CAS        20.6009  -29.2442   25.1896 C.ar        1 E1B       0.0156
     22 CAT        20.1314  -31.6520   25.2966 C.ar        1 E1B       0.0678
     23 CAU        13.8624  -32.2657   26.5314 C.ar        1 E1B       0.0111
     24 CAV        18.3070  -33.1538   24.7981 C.ar        1 E1B       0.1682
     25 CAW        16.0869  -32.7959   25.6400 C.ar        1 E1B       0.0354
     26 CAY        15.5692  -33.8893   24.8863 C.ar        1 E1B       0.0121
     27 H1         19.0827  -36.6341   22.1142 H           1 E1B       0.1131
     28 H2         15.1922  -36.1589   23.2912 H           1 E1B       0.0992
     29 H3         20.2577  -26.2493   23.5704 H           1 E1B       0.1233
     30 H4         22.0398  -30.6438   27.8888 H           1 E1B       0.0590
     31 H5         21.7847  -28.5072   26.7974 H           1 E1B       0.0537
     32 H6         21.0375  -32.6413   26.9417 H           1 E1B       0.0543
     33 H7         12.3294  -33.5353   25.7908 H           1 E1B       0.0637
     34 H8         13.7359  -34.8938   24.4491 H           1 E1B       0.0642
     35 H9         19.4483  -30.3482   23.7856 H           1 E1B       0.0550
     36 H10        15.6537  -31.2396   26.9866 H           1 E1B       0.0650
     37 H11        20.1815  -33.2727   24.1302 H           1 E1B       0.2200
@<TRIPOS>BOND
     1     1     2  ar
     2     6     1  ar
     3     3     2  ar
     4     4     3  ar
     5     5     4  ar
     6    24     4  ar
     7     5     6  ar
     8    26     5  ar
     9    10     7   3
    10    20     8  ar
    11    20     9  ar
    12    21    10   1
    13    11    12  ar
    14    13    11  ar
    15    21    12  ar
    16    22    13  ar
    17    14    15  ar
    18    23    14  ar
    19    15    26  ar
    20    16    21  ar
    21    22    16  ar
    22    23    17  ar
    23    17    25  ar
    24    18    24  ar
    25    25    18  ar
    26    19    22   1
    27    24    19   1
    28    20    23   1
    29    25    26  ar
    30     2    27   1
    31     6    28   1
    32     7    29   1
    33    11    30   1
    34    12    31   1
    35    13    32   1
    36    14    33   1
    37    15    34   1
    38    16    35   1
    39    17    36   1
    40    19    37   1
@<TRIPOS>SUBSTRUCTURE
     1  E1B      2

