@<TRIPOS>MOLECULE
3pe2_ligand_024
    37    40
SMALL
GAST_HUCK
****
This file was generated by PARSER (from files_GN.cpp)

@<TRIPOS>ATOM
      1 N1         24.1854  -21.9336   12.7408 N.ar        1 E1B      -0.2566
      2 C2         24.0337  -22.5493   11.5443 C.ar        1 E1B       0.0922
      3 N3         23.6826  -23.8544   11.5155 N.ar        1 E1B      -0.2517
      4 C4         23.4853  -24.5817   12.6489 C.ar        1 E1B       0.1245
      5 C5         23.6470  -23.9671   13.9274 C.ar        1 E1B       0.0502
      6 C6         23.9993  -22.5930   13.9090 C.ar        1 E1B       0.0434
      7 CAA        18.9588  -30.2139    9.2786 C.1         1 E1B      -0.1140
      8 OAB        23.6211  -27.3374   19.5146 O.co2       1 E1B      -0.5601
      9 OAC        21.5994  -28.0023   18.5818 O.co2       1 E1B      -0.5601
     10 CAD        20.0154  -29.9180    9.7435 C.1         1 E1B      -0.0725
     11 CAE        23.2608  -30.2274   11.3311 C.ar        1 E1B      -0.0695
     12 CAG        22.0651  -30.5872   10.6844 C.ar        1 E1B      -0.0574
     13 CAH        23.5488  -28.8724   11.5787 C.ar        1 E1B      -0.0371
     14 CAI        23.3286  -25.0914   17.5506 C.ar        1 E1B      -0.0469
     15 CAJ        23.5520  -24.2566   16.4360 C.ar        1 E1B      -0.0482
     16 CAL        21.4734  -28.2250   10.4819 C.ar        1 E1B      -0.0223
     17 CAM        22.8516  -26.9491   16.0693 C.ar        1 E1B      -0.0324
     18 NAP        22.9591  -26.6427   13.7093 N.ar        1 E1B      -0.2773
     19 NAQ        22.9299  -26.5398   11.3507 N.pl3       1 E1B      -0.2490
     20 CAR        22.7204  -27.2502   18.5053 C.2         1 E1B       0.0639
     21 CAS        21.1579  -29.5866   10.2724 C.ar        1 E1B       0.0156
     22 CAT        22.6600  -27.8601   11.1532 C.ar        1 E1B       0.0678
     23 CAU        22.9767  -26.4418   17.3814 C.ar        1 E1B       0.0111
     24 CAV        23.1347  -25.9464   12.5569 C.ar        1 E1B       0.1682
     25 CAW        23.0900  -26.1187   14.9517 C.ar        1 E1B       0.0354
     26 CAY        23.4413  -24.7482   15.1085 C.ar        1 E1B       0.0121
     27 H1         24.1760  -22.0332   10.6728 H           1 E1B       0.1131
     28 H2         24.1149  -22.0563   14.7655 H           1 E1B       0.0992
     29 H3         18.1348  -30.4355    8.9272 H           1 E1B       0.1233
     30 H4         23.9151  -30.9538   11.6374 H           1 E1B       0.0590
     31 H5         21.8648  -31.5798   10.5218 H           1 E1B       0.0537
     32 H6         24.4167  -28.6295   12.0599 H           1 E1B       0.0543
     33 H7         23.3902  -24.6887   18.4863 H           1 E1B       0.0637
     34 H8         23.7905  -23.2816   16.6205 H           1 E1B       0.0642
     35 H9         20.8234  -27.4908   10.1837 H           1 E1B       0.0550
     36 H10        22.5959  -27.9320   15.9201 H           1 E1B       0.0650
     37 H11        22.8613  -25.9574   10.5742 H           1 E1B       0.2200
@<TRIPOS>BOND
     1     1     2  ar
     2     6     1  ar
     3     3     2  ar
     4     4     3  ar
     5     5     4  ar
     6    24     4  ar
     7     5     6  ar
     8    26     5  ar
     9    10     7   3
    10    20     8  ar
    11    20     9  ar
    12    21    10   1
    13    11    12  ar
    14    13    11  ar
    15    21    12  ar
    16    22    13  ar
    17    14    15  ar
    18    23    14  ar
    19    15    26  ar
    20    16    21  ar
    21    22    16  ar
    22    23    17  ar
    23    17    25  ar
    24    18    24  ar
    25    25    18  ar
    26    19    22   1
    27    24    19   1
    28    20    23   1
    29    25    26  ar
    30     2    27   1
    31     6    28   1
    32     7    29   1
    33    11    30   1
    34    12    31   1
    35    13    32   1
    36    14    33   1
    37    15    34   1
    38    16    35   1
    39    17    36   1
    40    19    37   1
@<TRIPOS>SUBSTRUCTURE
     1  E1B      2

