@<TRIPOS>MOLECULE
3pww_ligand_075
   100   104
SMALL
GAST_HUCK
****
This file was generated by PARSER (from files_GN.cpp)

@<TRIPOS>ATOM
      1 C          -4.2192    2.7341    6.7453 C.2         1 ROC       0.2293
      2 O          -5.3731    2.4322    6.4668 O.2         1 ROC      -0.3762
      3 N1         -4.9289    4.9813    7.0895 N.ar        1 ROC      -0.2737
      4 C2         -3.9125    4.0856    6.9337 C.ar        1 ROC       0.1219
      5 C3         -2.5890    4.5836    6.9957 C.ar        1 ROC      -0.0136
      6 C4         -2.3611    5.9544    7.2124 C.ar        1 ROC      -0.0314
      7 C5         -3.2565    8.2239    7.5921 C.ar        1 ROC      -0.0444
      8 C6         -4.3712    9.0695    7.7532 C.ar        1 ROC      -0.0546
      9 C7         -5.6728    8.5395    7.6996 C.ar        1 ROC      -0.0545
     10 C8         -5.8702    7.1643    7.4708 C.ar        1 ROC      -0.0370
     11 C4A        -3.4443    6.8427    7.3715 C.ar        1 ROC       0.0097
     12 C8A        -4.7584    6.3121    7.3046 C.ar        1 ROC       0.0527
     13 N          -3.3186    1.7737    6.9294 N.am        1 ROC      -0.2600
     14 CA         -3.5346    0.3454    6.8837 C.3         1 ROC       0.1473
     15 C1         -4.5396   -0.0870    7.8509 C.2         1 ROC       0.2045
     16 O1         -5.4040   -0.8845    7.4898 O.2         1 ROC      -0.3943
     17 CB         -2.1966   -0.4121    7.1517 C.3         1 ROC       0.0773
     18 CG         -1.1294   -0.2569    6.1797 C.2         1 ROC       0.1780
     19 OD1        -1.2335    0.4645    5.1984 O.2         1 ROC      -0.3970
     20 ND2         0.0113   -0.8870    6.3592 N.am        1 ROC      -0.3007
     21 C9         -6.3817    1.3942   10.3387 C.3         1 ROC       0.1194
     22 O2         -5.8318    2.3128   11.2817 O.3         1 ROC      -0.3840
     23 CA1        -5.4463    0.1433   10.1633 C.3         1 ROC       0.0823
     24 N2         -4.5301    0.4077    9.0803 N.am        1 ROC      -0.2772
     25 CB1        -4.6772   -0.3063   11.4635 C.3         1 ROC       0.0066
     26 CG1        -3.2575    0.1513   11.5662 C.ar        1 ROC      -0.0408
     27 CD1        -2.2348   -0.5820   10.9173 C.ar        1 ROC      -0.0603
     28 CD2        -2.9115    1.3620   12.2114 C.ar        1 ROC      -0.0603
     29 CE1        -0.9172   -0.0949   10.8663 C.ar        1 ROC      -0.0686
     30 CE2        -1.5907    1.8467   12.1684 C.ar        1 ROC      -0.0686
     31 CZ         -0.5989    1.1321   11.4758 C.ar        1 ROC      -0.0687
     32 N11        -8.6499    0.2671    9.7447 N.4         1 ROC       0.2562
     33 CM         -7.8445    1.0396   10.7634 C.3         1 ROC      -0.0008
     34 C21        -8.9552    0.9849    8.4451 C.3         1 ROC       0.0688
     35 CC         -9.5790    2.3168    8.4882 C.2         1 ROC       0.2251
     36 O3         -9.3196    3.0809    7.5669 O.2         1 ROC      -0.3909
     37 C31        -9.6558    0.0239    7.4329 C.3         1 ROC       0.0113
     38 C3A       -10.8565   -0.7908    7.9952 C.3         1 ROC      -0.0261
     39 C41       -12.1869    0.0195    8.0782 C.3         1 ROC      -0.0494
     40 C51       -13.3485   -0.8260    8.6565 C.3         1 ROC      -0.0528
     41 C61       -12.9808   -1.4258   10.0378 C.3         1 ROC      -0.0526
     42 C71       -11.6679   -2.2505    9.9678 C.3         1 ROC      -0.0451
     43 C7A       -10.4687   -1.4649    9.3536 C.3         1 ROC       0.0024
     44 C81        -9.8257   -0.4484   10.3423 C.3         1 ROC      -0.0266
     45 N3        -10.3763    2.7113    9.4751 N.am        1 ROC      -0.2771
     46 CD        -11.0372    3.9831    9.6923 C.3         1 ROC       0.0448
     47 C11       -12.0180    3.7642   10.8871 C.3         1 ROC      -0.0396
     48 C22       -11.8695    4.4580    8.4582 C.3         1 ROC      -0.0396
     49 C32        -9.9818    5.0593   10.0896 C.3         1 ROC      -0.0396
     50 H1         -1.7835    3.9672    6.8779 H           1 ROC       0.0729
     51 H2         -1.4004    6.3005    7.2572 H           1 ROC       0.0774
     52 H3         -2.3154    8.6220    7.6395 H           1 ROC       0.0657
     53 H4         -4.2320   10.0684    7.9179 H           1 ROC       0.0652
     54 H5         -6.4783    9.1560    7.8255 H           1 ROC       0.0657
     55 H6         -6.8197    6.7874    7.4329 H           1 ROC       0.0653
     56 H7         -2.4182    2.0516    7.1666 H           1 ROC       0.1882
     57 H8         -3.8672    0.0879    5.8707 H           1 ROC       0.0826
     58 H9         -2.4092   -1.4835    7.2315 H           1 ROC       0.0551
     59 H10        -1.8029   -0.0825    8.1175 H           1 ROC       0.0551
     60 H11         0.7391   -0.7657    5.7276 H           1 ROC       0.1814
     61 H12         0.1310   -1.4745    7.1268 H           1 ROC       0.1814
     62 H13        -6.4366    1.9536    9.4025 H           1 ROC       0.0672
     63 H14        -6.4157    3.1042   11.2495 H           1 ROC       0.2101
     64 H15        -6.0787   -0.7040    9.8824 H           1 ROC       0.0606
     65 H16        -3.8529    1.0789    9.2608 H           1 ROC       0.1857
     66 H17        -4.6782   -1.3990   11.5155 H           1 ROC       0.0449
     67 H18        -5.2317    0.0161   12.3478 H           1 ROC       0.0449
     68 H19        -2.4548   -1.4593   10.4383 H           1 ROC       0.0557
     69 H20        -3.6234    1.9092   12.7022 H           1 ROC       0.0557
     70 H21        -0.1936   -0.6180   10.3685 H           1 ROC       0.0599
     71 H22        -1.3521    2.7265   12.6278 H           1 ROC       0.0599
     72 H23         0.3548    1.4981   11.4179 H           1 ROC       0.0559
     73 H24        -8.0368   -0.4964    9.4566 H           1 ROC       0.2057
     74 H25        -8.3692    1.9609   11.0260 H           1 ROC       0.0841
     75 H26        -7.7598    0.4578   11.6856 H           1 ROC       0.0841
     76 H27        -7.9739    1.1492    7.9895 H           1 ROC       0.1100
     77 H28        -8.9071   -0.7085    7.1068 H           1 ROC       0.0348
     78 H29        -9.9650    0.5663    6.5316 H           1 ROC       0.0348
     79 H30       -11.0436   -1.5992    7.2792 H           1 ROC       0.0309
     80 H31       -12.4658    0.3624    7.0769 H           1 ROC       0.0268
     81 H32       -12.0577    0.9004    8.7046 H           1 ROC       0.0268
     82 H33       -13.5944   -1.6358    7.9619 H           1 ROC       0.0265
     83 H34       -14.2360   -0.1956    8.7609 H           1 ROC       0.0265
     84 H35       -13.7944   -2.0710   10.3755 H           1 ROC       0.0265
     85 H36       -12.8711   -0.6180   10.7672 H           1 ROC       0.0265
     86 H37       -11.8557   -3.1402    9.3573 H           1 ROC       0.0270
     87 H38       -11.4108   -2.6022   10.9730 H           1 ROC       0.0270
     88 H39        -9.6909   -2.2077    9.1364 H           1 ROC       0.0355
     89 H40       -10.5768    0.2474   10.7107 H           1 ROC       0.0818
     90 H41        -9.4794   -1.0269   11.2012 H           1 ROC       0.0818
     91 H42       -10.5299    2.0586   10.1680 H           1 ROC       0.1859
     92 H43       -12.5440    4.6880   11.1392 H           1 ROC       0.0254
     93 H44       -11.4833    3.4289   11.7778 H           1 ROC       0.0254
     94 H45       -12.7651    3.0065   10.6377 H           1 ROC       0.0254
     95 H46       -12.5190    5.2958    8.7257 H           1 ROC       0.0254
     96 H47       -12.4985    3.6471    8.0867 H           1 ROC       0.0254
     97 H48       -11.2220    4.7919    7.6457 H           1 ROC       0.0254
     98 H49       -10.4671    6.0141   10.3055 H           1 ROC       0.0254
     99 H50        -9.2647    5.2154    9.2824 H           1 ROC       0.0254
    100 H51        -9.4304    4.7463   10.9786 H           1 ROC       0.0254
@<TRIPOS>BOND
     1     1     2   2
     2     1     4   1
     3    13     1  am
     4     4     3  ar
     5     3    12  ar
     6     4     5  ar
     7     5     6  ar
     8     6    11  ar
     9     7     8  ar
    10    11     7  ar
    11     9     8  ar
    12    10     9  ar
    13    12    10  ar
    14    12    11  ar
    15    14    13   1
    16    15    14   1
    17    14    17   1
    18    15    16   2
    19    24    15  am
    20    17    18   1
    21    18    19   2
    22    18    20  am
    23    21    22   1
    24    23    21   1
    25    21    33   1
    26    23    24   1
    27    23    25   1
    28    25    26   1
    29    26    27  ar
    30    26    28  ar
    31    27    29  ar
    32    28    30  ar
    33    29    31  ar
    34    30    31  ar
    35    33    32   1
    36    32    34   1
    37    32    44   1
    38    34    35   1
    39    34    37   1
    40    35    36   2
    41    35    45  am
    42    37    38   1
    43    38    39   1
    44    38    43   1
    45    39    40   1
    46    40    41   1
    47    41    42   1
    48    42    43   1
    49    43    44   1
    50    45    46   1
    51    46    47   1
    52    46    48   1
    53    46    49   1
    54     5    50   1
    55     6    51   1
    56     7    52   1
    57     8    53   1
    58     9    54   1
    59    10    55   1
    60    13    56   1
    61    14    57   1
    62    17    58   1
    63    17    59   1
    64    20    60   1
    65    20    61   1
    66    21    62   1
    67    22    63   1
    68    23    64   1
    69    24    65   1
    70    25    66   1
    71    25    67   1
    72    27    68   1
    73    28    69   1
    74    29    70   1
    75    30    71   1
    76    31    72   1
    77    32    73   1
    78    33    74   1
    79    33    75   1
    80    34    76   1
    81    37    77   1
    82    37    78   1
    83    38    79   1
    84    39    80   1
    85    39    81   1
    86    40    82   1
    87    40    83   1
    88    41    84   1
    89    41    85   1
    90    42    86   1
    91    42    87   1
    92    43    88   1
    93    44    89   1
    94    44    90   1
    95    45    91   1
    96    47    92   1
    97    47    93   1
    98    47    94   1
    99    48    95   1
   100    48    96   1
   101    48    97   1
   102    49    98   1
   103    49    99   1
   104    49   100   1
@<TRIPOS>SUBSTRUCTURE
     1  ROC      1

