@<TRIPOS>MOLECULE
3pww_ligand_050
   100   104
SMALL
GAST_HUCK
****
This file was generated by PARSER (from files_GN.cpp)

@<TRIPOS>ATOM
      1 C          -5.4427   -0.4871    8.2719 C.2         1 ROC       0.2293
      2 O          -5.5263    0.5887    8.8500 O.2         1 ROC      -0.3762
      3 N1         -7.5690   -1.0607    9.1566 N.ar        1 ROC      -0.2737
      4 C2         -6.5776   -1.3013    8.2473 C.ar        1 ROC       0.1219
      5 C3         -6.7651   -2.3855    7.3557 C.ar        1 ROC      -0.0136
      6 C4         -7.9451   -3.1519    7.4141 C.ar        1 ROC      -0.0314
      7 C5        -10.1293   -3.6177    8.4820 C.ar        1 ROC      -0.0444
      8 C6        -11.0753   -3.3035    9.4817 C.ar        1 ROC      -0.0546
      9 C7        -10.8361   -2.2382   10.3653 C.ar        1 ROC      -0.0545
     10 C8         -9.6606   -1.4737   10.2574 C.ar        1 ROC      -0.0370
     11 C4A        -8.9382   -2.8700    8.3774 C.ar        1 ROC       0.0097
     12 C8A        -8.7102   -1.7854    9.2647 C.ar        1 ROC       0.0527
     13 N          -4.2927   -0.8766    7.7289 N.am        1 ROC      -0.2600
     14 CA         -2.9659   -0.2969    7.7055 C.3         1 ROC       0.1473
     15 C1         -2.6832    0.8488    8.5807 C.2         1 ROC       0.2045
     16 O1         -3.3040    1.8902    8.4081 O.2         1 ROC      -0.3943
     17 CB         -2.5908   -0.0175    6.2135 C.3         1 ROC       0.0773
     18 CG         -1.1798    0.0314    5.8691 C.2         1 ROC       0.1780
     19 OD1        -0.8446    0.6521    4.8686 O.2         1 ROC      -0.3970
     20 ND2        -0.2569   -0.7266    6.4253 N.am        1 ROC      -0.3007
     21 C9          0.0141    1.9885   10.6920 C.3         1 ROC       0.1194
     22 O2          0.4160    2.3366   12.0198 O.3         1 ROC      -0.3840
     23 CA1        -1.5324    1.7259   10.6119 C.3         1 ROC       0.0823
     24 N2         -1.8031    0.7613    9.5683 N.am        1 ROC      -0.2772
     25 CB1        -2.1532    1.1811   11.9346 C.3         1 ROC       0.0066
     26 CG1        -3.6265    0.9466   11.8512 C.ar        1 ROC      -0.0408
     27 CD1        -4.1435   -0.3402   11.5770 C.ar        1 ROC      -0.0603
     28 CD2        -4.5385    2.0125   12.0556 C.ar        1 ROC      -0.0603
     29 CE1        -5.5318   -0.5679   11.5623 C.ar        1 ROC      -0.0686
     30 CE2        -5.9261    1.7895   12.0306 C.ar        1 ROC      -0.0686
     31 CZ         -6.4259    0.4913   11.8014 C.ar        1 ROC      -0.0687
     32 N11         0.9028    4.4155   10.3079 N.4         1 ROC       0.2562
     33 CM          0.5468    3.0842    9.6976 C.3         1 ROC      -0.0008
     34 C21        -0.2223    5.1388   11.0103 C.3         1 ROC       0.0688
     35 CC         -1.4005    5.6082   10.2458 C.2         1 ROC       0.2251
     36 O3         -2.3760    5.9293   10.9112 O.2         1 ROC      -0.3909
     37 C31         0.4281    6.2621   11.8934 C.3         1 ROC       0.0113
     38 C3A         1.3839    7.2317   11.1439 C.3         1 ROC      -0.0261
     39 C41         0.6298    8.3077   10.3097 C.3         1 ROC      -0.0494
     40 C51         1.6066    9.2694    9.5895 C.3         1 ROC      -0.0528
     41 C61         2.5918    8.4836    8.6897 C.3         1 ROC      -0.0526
     42 C71         3.3555    7.3926    9.4874 C.3         1 ROC      -0.0451
     43 C7A         2.4254    6.4320   10.2969 C.3         1 ROC       0.0024
     44 C81         1.7468    5.3099    9.4466 C.3         1 ROC      -0.0266
     45 N3         -1.4863    5.6468    8.9142 N.am        1 ROC      -0.2771
     46 CD         -2.5309    6.1367    8.0241 C.3         1 ROC       0.0448
     47 C11        -2.0203    7.4515    7.3691 C.3         1 ROC      -0.0396
     48 C22        -3.9350    6.4007    8.6602 C.3         1 ROC      -0.0396
     49 C32        -2.7110    5.0661    6.9032 C.3         1 ROC      -0.0396
     50 H1         -6.0666   -2.6178    6.6470 H           1 ROC       0.0729
     51 H2         -8.0780   -3.9209    6.7542 H           1 ROC       0.0774
     52 H3        -10.3165   -4.3979    7.8521 H           1 ROC       0.0657
     53 H4        -11.9320   -3.8565    9.5684 H           1 ROC       0.0652
     54 H5        -11.5216   -2.0169   11.0940 H           1 ROC       0.0657
     55 H6         -9.5003   -0.6948   10.8959 H           1 ROC       0.0653
     56 H7         -4.3333   -1.7393    7.2881 H           1 ROC       0.1882
     57 H8         -2.3432   -1.1327    8.0303 H           1 ROC       0.0826
     58 H9         -3.0646    0.9207    5.9085 H           1 ROC       0.0551
     59 H10        -3.0180   -0.8020    5.5845 H           1 ROC       0.0551
     60 H11         0.6521   -0.7089    6.0753 H           1 ROC       0.1814
     61 H12        -0.4678   -1.3112    7.1713 H           1 ROC       0.1814
     62 H13         0.5314    1.0418   10.4796 H           1 ROC       0.0672
     63 H14         1.3934    2.4025   11.9898 H           1 ROC       0.2101
     64 H15        -2.0178    2.6845   10.4128 H           1 ROC       0.0606
     65 H16        -1.3450   -0.0930    9.6512 H           1 ROC       0.1857
     66 H17        -1.9790    1.8829   12.7539 H           1 ROC       0.0449
     67 H18        -1.6406    0.2559   12.2088 H           1 ROC       0.0449
     68 H19        -3.5141   -1.1236   11.3896 H           1 ROC       0.0557
     69 H20        -4.1942    2.9590   12.2441 H           1 ROC       0.0557
     70 H21        -5.8968   -1.5060   11.3668 H           1 ROC       0.0599
     71 H22        -6.5775    2.5609   12.1809 H           1 ROC       0.0599
     72 H23        -7.4334    0.3269   11.7984 H           1 ROC       0.0559
     73 H24         1.5593    4.1357   11.0447 H           1 ROC       0.2057
     74 H25        -0.1541    3.2222    8.8756 H           1 ROC       0.0841
     75 H26         1.4525    2.6716    9.2414 H           1 ROC       0.0841
     76 H27        -0.6334    4.4196   11.7248 H           1 ROC       0.1100
     77 H28         1.0222    5.7642   12.6632 H           1 ROC       0.0348
     78 H29        -0.3366    6.8318   12.4226 H           1 ROC       0.0348
     79 H30         1.9433    7.7777   11.9098 H           1 ROC       0.0309
     80 H31        -0.0208    8.8903   10.9630 H           1 ROC       0.0268
     81 H32         0.0028    7.8303    9.5564 H           1 ROC       0.0268
     82 H33         2.1686    9.8426   10.3287 H           1 ROC       0.0265
     83 H34         1.0407    9.9730    8.9761 H           1 ROC       0.0265
     84 H35         3.3129    9.1813    8.2515 H           1 ROC       0.0265
     85 H36         2.0355    8.0232    7.8667 H           1 ROC       0.0265
     86 H37         4.0251    7.8990   10.1879 H           1 ROC       0.0270
     87 H38         3.9872    6.8180    8.8056 H           1 ROC       0.0270
     88 H39         3.0825    5.9054   11.0065 H           1 ROC       0.0355
     89 H40         1.1578    5.7503    8.6431 H           1 ROC       0.0818
     90 H41         2.5486    4.7252    8.9838 H           1 ROC       0.0818
     91 H42        -0.6849    5.3658    8.4523 H           1 ROC       0.1859
     92 H43        -2.7227    7.8123    6.6170 H           1 ROC       0.0254
     93 H44        -1.0557    7.3010    6.8844 H           1 ROC       0.0254
     94 H45        -1.9054    8.2352    8.1186 H           1 ROC       0.0254
     95 H46        -4.6760    6.6296    7.8851 H           1 ROC       0.0254
     96 H47        -3.9047    7.2542    9.3352 H           1 ROC       0.0254
     97 H48        -4.2834    5.5276    9.2114 H           1 ROC       0.0254
     98 H49        -3.4027    5.4102    6.1298 H           1 ROC       0.0254
     99 H50        -3.1149    4.1420    7.3121 H           1 ROC       0.0254
    100 H51        -1.7595    4.8333    6.4258 H           1 ROC       0.0254
@<TRIPOS>BOND
     1     1     2   2
     2     1     4   1
     3    13     1  am
     4     4     3  ar
     5     3    12  ar
     6     4     5  ar
     7     5     6  ar
     8     6    11  ar
     9     7     8  ar
    10    11     7  ar
    11     9     8  ar
    12    10     9  ar
    13    12    10  ar
    14    12    11  ar
    15    14    13   1
    16    15    14   1
    17    14    17   1
    18    15    16   2
    19    24    15  am
    20    17    18   1
    21    18    19   2
    22    18    20  am
    23    21    22   1
    24    23    21   1
    25    21    33   1
    26    23    24   1
    27    23    25   1
    28    25    26   1
    29    26    27  ar
    30    26    28  ar
    31    27    29  ar
    32    28    30  ar
    33    29    31  ar
    34    30    31  ar
    35    33    32   1
    36    32    34   1
    37    32    44   1
    38    34    35   1
    39    34    37   1
    40    35    36   2
    41    35    45  am
    42    37    38   1
    43    38    39   1
    44    38    43   1
    45    39    40   1
    46    40    41   1
    47    41    42   1
    48    42    43   1
    49    43    44   1
    50    45    46   1
    51    46    47   1
    52    46    48   1
    53    46    49   1
    54     5    50   1
    55     6    51   1
    56     7    52   1
    57     8    53   1
    58     9    54   1
    59    10    55   1
    60    13    56   1
    61    14    57   1
    62    17    58   1
    63    17    59   1
    64    20    60   1
    65    20    61   1
    66    21    62   1
    67    22    63   1
    68    23    64   1
    69    24    65   1
    70    25    66   1
    71    25    67   1
    72    27    68   1
    73    28    69   1
    74    29    70   1
    75    30    71   1
    76    31    72   1
    77    32    73   1
    78    33    74   1
    79    33    75   1
    80    34    76   1
    81    37    77   1
    82    37    78   1
    83    38    79   1
    84    39    80   1
    85    39    81   1
    86    40    82   1
    87    40    83   1
    88    41    84   1
    89    41    85   1
    90    42    86   1
    91    42    87   1
    92    43    88   1
    93    44    89   1
    94    44    90   1
    95    45    91   1
    96    47    92   1
    97    47    93   1
    98    47    94   1
    99    48    95   1
   100    48    96   1
   101    48    97   1
   102    49    98   1
   103    49    99   1
   104    49   100   1
@<TRIPOS>SUBSTRUCTURE
     1  ROC      1

