@<TRIPOS>MOLECULE
3pww_ligand_085
   100   104
SMALL
GAST_HUCK
****
This file was generated by PARSER (from files_GN.cpp)

@<TRIPOS>ATOM
      1 C          -5.3422   -1.7508    6.6505 C.2         1 ROC       0.2293
      2 O          -5.2445   -2.8455    7.1933 O.2         1 ROC      -0.3762
      3 N1         -7.4178   -2.4744    5.7435 N.ar        1 ROC      -0.2737
      4 C2         -6.4525   -1.5129    5.8325 C.ar        1 ROC       0.1219
      5 C3         -6.6529   -0.3206    5.0957 C.ar        1 ROC      -0.0136
      6 C4         -7.8209   -0.1526    4.3273 C.ar        1 ROC      -0.0314
      7 C5         -9.9884   -1.0406    3.5357 C.ar        1 ROC      -0.0444
      8 C6        -10.9260   -2.0929    3.5129 C.ar        1 ROC      -0.0546
      9 C7        -10.6765   -3.2766    4.2304 C.ar        1 ROC      -0.0545
     10 C8         -9.4941   -3.4133    4.9805 C.ar        1 ROC      -0.0370
     11 C4A        -8.7970   -1.1680    4.2819 C.ar        1 ROC       0.0097
     12 C8A        -8.5560   -2.3615    5.0128 C.ar        1 ROC       0.0527
     13 N          -4.4114   -0.8289    6.8864 N.am        1 ROC      -0.2600
     14 CA         -3.2571   -0.9704    7.7379 C.3         1 ROC       0.1473
     15 C1         -3.6254   -0.6264    9.1066 C.2         1 ROC       0.2045
     16 O1         -3.8338   -1.5406    9.8955 O.2         1 ROC      -0.3943
     17 CB         -2.0778   -0.1017    7.2053 C.3         1 ROC       0.0773
     18 CG         -1.5006   -0.6159    5.9786 C.2         1 ROC       0.1780
     19 OD1        -1.8560   -0.1757    4.8917 O.2         1 ROC      -0.3970
     20 ND2        -0.5883   -1.5639    6.0077 N.am        1 ROC      -0.3007
     21 C9         -4.8826    2.4408   10.7669 C.3         1 ROC       0.1194
     22 O2         -5.9248    2.3105    9.7939 O.3         1 ROC      -0.3840
     23 CA1        -4.0846    1.0909   10.8226 C.3         1 ROC       0.0823
     24 N2         -3.7418    0.6437    9.4976 N.am        1 ROC      -0.2772
     25 CB1        -2.8987    1.0232   11.8641 C.3         1 ROC       0.0066
     26 CG1        -1.5173    0.8874   11.3039 C.ar        1 ROC      -0.0408
     27 CD1        -0.9211   -0.3874   11.1423 C.ar        1 ROC      -0.0603
     28 CD2        -0.7755    2.0229   10.9031 C.ar        1 ROC      -0.0603
     29 CE1         0.3432   -0.5239   10.5368 C.ar        1 ROC      -0.0686
     30 CE2         0.4705    1.8883   10.2595 C.ar        1 ROC      -0.0686
     31 CZ          1.0302    0.6102   10.0760 C.ar        1 ROC      -0.0687
     32 N11        -3.8406    4.1506    9.1041 N.4         1 ROC       0.2562
     33 CM         -4.1059    3.7783   10.5465 C.3         1 ROC      -0.0008
     34 C21        -2.3791    4.2028    8.7292 C.3         1 ROC       0.0688
     35 CC         -1.5006    5.0815    9.5136 C.2         1 ROC       0.2251
     36 O3         -1.9738    5.8457   10.3426 O.2         1 ROC      -0.3909
     37 C31        -2.2285    4.4442    7.1941 C.3         1 ROC       0.0113
     38 C3A        -3.0210    5.6694    6.6366 C.3         1 ROC      -0.0261
     39 C41        -2.3548    7.0498    6.9368 C.3         1 ROC      -0.0494
     40 C51        -3.1922    8.2353    6.3919 C.3         1 ROC      -0.0528
     41 C61        -4.6429    8.1911    6.9319 C.3         1 ROC      -0.0526
     42 C71        -5.3229    6.8343    6.6142 C.3         1 ROC      -0.0451
     43 C7A        -4.5085    5.5934    7.1036 C.3         1 ROC       0.0024
     44 C81        -4.6272    5.3450    8.6338 C.3         1 ROC      -0.0266
     45 N3         -0.1822    5.0065    9.3592 N.am        1 ROC      -0.2771
     46 CD          0.8514    5.8338    9.9573 C.3         1 ROC       0.0448
     47 C11         2.2179    5.1705    9.6069 C.3         1 ROC      -0.0396
     48 C22         0.7396    5.9039   11.5152 C.3         1 ROC      -0.0396
     49 C32         0.8069    7.2639    9.3391 C.3         1 ROC      -0.0396
     50 H1         -5.9638    0.4343    5.1071 H           1 ROC       0.0729
     51 H2         -7.9522    0.7167    3.8045 H           1 ROC       0.0774
     52 H3        -10.1830   -0.1880    3.0047 H           1 ROC       0.0657
     53 H4        -11.7881   -1.9963    2.9710 H           1 ROC       0.0652
     54 H5        -11.3603   -4.0384    4.2106 H           1 ROC       0.0657
     55 H6         -9.3220   -4.2760    5.5021 H           1 ROC       0.0653
     56 H7         -4.5159    0.0339    6.4573 H           1 ROC       0.1882
     57 H8         -2.9134   -2.0138    7.7173 H           1 ROC       0.0826
     58 H9         -1.2889   -0.0535    7.9622 H           1 ROC       0.0551
     59 H10        -2.4289    0.9235    7.0452 H           1 ROC       0.0551
     60 H11        -0.2078   -1.8967    5.1791 H           1 ROC       0.1814
     61 H12        -0.2874   -1.9238    6.8619 H           1 ROC       0.1814
     62 H13        -5.3787    2.5327   11.7392 H           1 ROC       0.0672
     63 H14        -6.5417    3.0487    9.9611 H           1 ROC       0.2101
     64 H15        -4.8408    0.3797   11.1877 H           1 ROC       0.0606
     65 H16        -3.6219    1.3219    8.8164 H           1 ROC       0.1857
     66 H17        -3.0716    0.1676   12.5230 H           1 ROC       0.0449
     67 H18        -2.9288    1.8863   12.5294 H           1 ROC       0.0449
     68 H19        -1.4114   -1.2334   11.4433 H           1 ROC       0.0557
     69 H20        -1.1358    2.9632   11.0666 H           1 ROC       0.0557
     70 H21         0.7588   -1.4476   10.4269 H           1 ROC       0.0599
     71 H22         0.9706    2.7191    9.9305 H           1 ROC       0.0599
     72 H23         1.9291    0.5005    9.5997 H           1 ROC       0.0559
     73 H24        -4.2124    3.3722    8.5542 H           1 ROC       0.2057
     74 H25        -3.1872    3.7261   11.1343 H           1 ROC       0.0841
     75 H26        -4.6911    4.5691   11.0244 H           1 ROC       0.0841
     76 H27        -2.0145    3.1879    8.9117 H           1 ROC       0.1100
     77 H28        -2.6051    3.5551    6.6813 H           1 ROC       0.0348
     78 H29        -1.1758    4.5321    6.9279 H           1 ROC       0.0348
     79 H30        -3.0260    5.5769    5.5437 H           1 ROC       0.0309
     80 H31        -1.3617    7.0883    6.4811 H           1 ROC       0.0268
     81 H32        -2.2336    7.1953    8.0085 H           1 ROC       0.0268
     82 H33        -3.2081    8.2011    5.2975 H           1 ROC       0.0265
     83 H34        -2.7208    9.1760    6.6900 H           1 ROC       0.0265
     84 H35        -5.2191    8.9970    6.4693 H           1 ROC       0.0265
     85 H36        -4.6384    8.3643    8.0126 H           1 ROC       0.0265
     86 H37        -5.4451    6.7632    5.5294 H           1 ROC       0.0270
     87 H38        -6.3230    6.8201    7.0537 H           1 ROC       0.0270
     88 H39        -4.9577    4.7191    6.6195 H           1 ROC       0.0355
     89 H40        -4.3240    6.2356    9.1846 H           1 ROC       0.0818
     90 H41        -5.6834    5.1710    8.8454 H           1 ROC       0.0818
     91 H42         0.1296    4.3237    8.7399 H           1 ROC       0.1859
     92 H43         3.0490    5.8494    9.8266 H           1 ROC       0.0254
     93 H44         2.2596    4.9128    8.5482 H           1 ROC       0.0254
     94 H45         2.3602    4.2459   10.1740 H           1 ROC       0.0254
     95 H46         1.6339    6.3649   11.9473 H           1 ROC       0.0254
     96 H47         0.6353    4.9018   11.9372 H           1 ROC       0.0254
     97 H48        -0.1199    6.4985   11.8239 H           1 ROC       0.0254
     98 H49         1.6149    7.8863    9.7309 H           1 ROC       0.0254
     99 H50        -0.1374    7.7613    9.5647 H           1 ROC       0.0254
    100 H51         0.9117    7.2042    8.2539 H           1 ROC       0.0254
@<TRIPOS>BOND
     1     1     2   2
     2     1     4   1
     3    13     1  am
     4     4     3  ar
     5     3    12  ar
     6     4     5  ar
     7     5     6  ar
     8     6    11  ar
     9     7     8  ar
    10    11     7  ar
    11     9     8  ar
    12    10     9  ar
    13    12    10  ar
    14    12    11  ar
    15    14    13   1
    16    15    14   1
    17    14    17   1
    18    15    16   2
    19    24    15  am
    20    17    18   1
    21    18    19   2
    22    18    20  am
    23    21    22   1
    24    23    21   1
    25    21    33   1
    26    23    24   1
    27    23    25   1
    28    25    26   1
    29    26    27  ar
    30    26    28  ar
    31    27    29  ar
    32    28    30  ar
    33    29    31  ar
    34    30    31  ar
    35    33    32   1
    36    32    34   1
    37    32    44   1
    38    34    35   1
    39    34    37   1
    40    35    36   2
    41    35    45  am
    42    37    38   1
    43    38    39   1
    44    38    43   1
    45    39    40   1
    46    40    41   1
    47    41    42   1
    48    42    43   1
    49    43    44   1
    50    45    46   1
    51    46    47   1
    52    46    48   1
    53    46    49   1
    54     5    50   1
    55     6    51   1
    56     7    52   1
    57     8    53   1
    58     9    54   1
    59    10    55   1
    60    13    56   1
    61    14    57   1
    62    17    58   1
    63    17    59   1
    64    20    60   1
    65    20    61   1
    66    21    62   1
    67    22    63   1
    68    23    64   1
    69    24    65   1
    70    25    66   1
    71    25    67   1
    72    27    68   1
    73    28    69   1
    74    29    70   1
    75    30    71   1
    76    31    72   1
    77    32    73   1
    78    33    74   1
    79    33    75   1
    80    34    76   1
    81    37    77   1
    82    37    78   1
    83    38    79   1
    84    39    80   1
    85    39    81   1
    86    40    82   1
    87    40    83   1
    88    41    84   1
    89    41    85   1
    90    42    86   1
    91    42    87   1
    92    43    88   1
    93    44    89   1
    94    44    90   1
    95    45    91   1
    96    47    92   1
    97    47    93   1
    98    47    94   1
    99    48    95   1
   100    48    96   1
   101    48    97   1
   102    49    98   1
   103    49    99   1
   104    49   100   1
@<TRIPOS>SUBSTRUCTURE
     1  ROC      1

