@<TRIPOS>MOLECULE
3pww_ligand_039
   100   104
SMALL
GAST_HUCK
****
This file was generated by PARSER (from files_GN.cpp)

@<TRIPOS>ATOM
      1 C           0.2948    9.3725   11.6394 C.2         1 ROC       0.2293
      2 O           0.4745    8.4852   12.4642 O.2         1 ROC      -0.3762
      3 N1         -1.0148   10.4920   13.2604 N.ar        1 ROC      -0.2737
      4 C2         -0.3917   10.5141   12.0479 C.ar        1 ROC       0.1219
      5 C3         -0.5100   11.6957   11.2752 C.ar        1 ROC      -0.0136
      6 C4         -1.2550   12.7838   11.7661 C.ar        1 ROC      -0.0314
      7 C5         -2.6329   13.7758   13.5663 C.ar        1 ROC      -0.0444
      8 C6         -3.2431   13.6464   14.8267 C.ar        1 ROC      -0.0546
      9 C7         -3.1165   12.4493   15.5555 C.ar        1 ROC      -0.0545
     10 C8         -2.3641   11.3828   15.0330 C.ar        1 ROC      -0.0370
     11 C4A        -1.8779   12.7097   13.0287 C.ar        1 ROC       0.0097
     12 C8A        -1.7398   11.5142   13.7772 C.ar        1 ROC       0.0527
     13 N           0.6690    9.1681   10.3751 N.am        1 ROC      -0.2600
     14 CA          1.2669    7.9763    9.8092 C.3         1 ROC       0.1473
     15 C1          0.3716    6.8167    9.8777 C.2         1 ROC       0.2045
     16 O1         -0.6355    6.8516   10.5746 O.2         1 ROC      -0.3943
     17 CB          2.6933    7.7328   10.4130 C.3         1 ROC       0.0773
     18 CG          3.4065    6.5759    9.8999 C.2         1 ROC       0.1780
     19 OD1         4.2416    6.7029    9.0162 O.2         1 ROC      -0.3970
     20 ND2         3.1447    5.3637   10.3495 N.am        1 ROC      -0.3007
     21 C9         -1.4182    4.7272    8.0809 C.3         1 ROC       0.1194
     22 O2         -1.7445    6.1080    7.8892 O.3         1 ROC      -0.3840
     23 CA1        -0.1674    4.5366    9.0335 C.3         1 ROC       0.0823
     24 N2          0.6087    5.7529    9.1158 N.am        1 ROC      -0.2772
     25 CB1        -0.3448    3.9175   10.4646 C.3         1 ROC       0.0066
     26 CG1        -0.5258    2.4394   10.5626 C.ar        1 ROC      -0.0408
     27 CD1        -1.5829    1.8848   11.3263 C.ar        1 ROC      -0.0603
     28 CD2         0.4362    1.5559   10.0126 C.ar        1 ROC      -0.0603
     29 CE1        -1.6846    0.4947   11.5233 C.ar        1 ROC      -0.0686
     30 CE2         0.3334    0.1630   10.2035 C.ar        1 ROC      -0.0686
     31 CZ         -0.7299   -0.3665   10.9565 C.ar        1 ROC      -0.0687
     32 N11        -3.9455    4.4729    7.6536 N.4         1 ROC       0.2562
     33 CM         -2.7387    3.9683    8.4112 C.3         1 ROC      -0.0008
     34 C21        -5.2688    4.0694    8.2570 C.3         1 ROC       0.0688
     35 CC         -5.5639    2.6361    8.3613 C.2         1 ROC       0.2251
     36 O3         -4.8746    1.8221    7.7626 O.2         1 ROC      -0.3909
     37 C31        -6.4244    4.8840    7.5874 C.3         1 ROC       0.0113
     38 C3A        -6.4176    4.8847    6.0282 C.3         1 ROC      -0.0261
     39 C41        -7.0196    3.5892    5.4000 C.3         1 ROC      -0.0494
     40 C51        -6.9814    3.6260    3.8504 C.3         1 ROC      -0.0528
     41 C61        -5.5453    3.8769    3.3260 C.3         1 ROC      -0.0526
     42 C71        -4.9418    5.1703    3.9270 C.3         1 ROC      -0.0451
     43 C7A        -4.9862    5.2094    5.4857 C.3         1 ROC       0.0024
     44 C81        -3.8982    4.3180    6.1594 C.3         1 ROC      -0.0266
     45 N3         -6.5667    2.2473    9.1413 N.am        1 ROC      -0.2771
     46 CD         -7.0814    0.9312    9.4495 C.3         1 ROC       0.0448
     47 C11        -7.7453    1.0543   10.8564 C.3         1 ROC      -0.0396
     48 C22        -6.0150   -0.2115    9.5092 C.3         1 ROC      -0.0396
     49 C32        -8.1652    0.5938    8.3842 C.3         1 ROC      -0.0396
     50 H1         -0.0577   11.7825   10.3631 H           1 ROC       0.0729
     51 H2         -1.3481   13.6263   11.1933 H           1 ROC       0.0774
     52 H3         -2.7405   14.6480   13.0456 H           1 ROC       0.0657
     53 H4         -3.7824   14.4227   15.2133 H           1 ROC       0.0652
     54 H5         -3.5746   12.3541   16.4644 H           1 ROC       0.0657
     55 H6         -2.2819   10.5131   15.5652 H           1 ROC       0.0653
     56 H7          0.4569    9.8745    9.7408 H           1 ROC       0.1882
     57 H8          1.4006    8.2107    8.7468 H           1 ROC       0.0826
     58 H9          2.6327    7.6311   11.4987 H           1 ROC       0.0551
     59 H10         3.2962    8.6253   10.2200 H           1 ROC       0.0551
     60 H11         3.5721    4.5815    9.9633 H           1 ROC       0.1814
     61 H12         2.4881    5.2454   11.0518 H           1 ROC       0.1814
     62 H13        -1.1041    4.3686    7.0970 H           1 ROC       0.0672
     63 H14        -1.0701    6.4272    7.2551 H           1 ROC       0.2101
     64 H15         0.5133    3.8614    8.5085 H           1 ROC       0.0606
     65 H16         1.4004    5.7949    8.5515 H           1 ROC       0.1857
     66 H17        -1.1641    4.4339   10.9629 H           1 ROC       0.0449
     67 H18         0.5569    4.1355   11.0521 H           1 ROC       0.0449
     68 H19        -2.2725    2.4919   11.7739 H           1 ROC       0.0557
     69 H20         1.2356    1.9253    9.4960 H           1 ROC       0.0557
     70 H21        -2.4437    0.1148   12.0939 H           1 ROC       0.0599
     71 H22         1.0410   -0.4610    9.8121 H           1 ROC       0.0599
     72 H23        -0.7991   -1.3752   11.1101 H           1 ROC       0.0559
     73 H24        -3.9176    5.4845    7.7972 H           1 ROC       0.2057
     74 H25        -2.9202    4.0980    9.4814 H           1 ROC       0.0841
     75 H26        -2.5943    2.9006    8.2269 H           1 ROC       0.0841
     76 H27        -5.2302    4.4328    9.2896 H           1 ROC       0.1100
     77 H28        -6.3167    5.9251    7.9112 H           1 ROC       0.0348
     78 H29        -7.4004    4.5517    7.9544 H           1 ROC       0.0348
     79 H30        -7.0757    5.7058    5.7181 H           1 ROC       0.0309
     80 H31        -8.0568    3.4733    5.7233 H           1 ROC       0.0268
     81 H32        -6.4691    2.7102    5.7325 H           1 ROC       0.0268
     82 H33        -7.6453    4.4159    3.4854 H           1 ROC       0.0265
     83 H34        -7.3475    2.6727    3.4561 H           1 ROC       0.0265
     84 H35        -5.5645    3.9567    2.2357 H           1 ROC       0.0265
     85 H36        -4.9134    3.0267    3.5867 H           1 ROC       0.0265
     86 H37        -5.5104    6.0204    3.5409 H           1 ROC       0.0270
     87 H38        -3.9125    5.2837    3.5769 H           1 ROC       0.0270
     88 H39        -4.7560    6.2428    5.7724 H           1 ROC       0.0355
     89 H40        -4.0170    3.2750    5.8648 H           1 ROC       0.0818
     90 H41        -2.9339    4.6492    5.7724 H           1 ROC       0.0818
     91 H42        -7.0565    2.9777    9.5537 H           1 ROC       0.1859
     92 H43        -8.2258    0.1181   11.1480 H           1 ROC       0.0254
     93 H44        -8.5066    1.8389   10.8635 H           1 ROC       0.0254
     94 H45        -6.9953    1.3041   11.6105 H           1 ROC       0.0254
     95 H46        -6.4460   -1.1269    9.9260 H           1 ROC       0.0254
     96 H47        -5.1718    0.0866   10.1364 H           1 ROC       0.0254
     97 H48        -5.6393   -0.4564    8.5145 H           1 ROC       0.0254
     98 H49        -8.6365   -0.3661    8.6016 H           1 ROC       0.0254
     99 H50        -7.7186    0.5402    7.3894 H           1 ROC       0.0254
    100 H51        -8.9426    1.3609    8.3653 H           1 ROC       0.0254
@<TRIPOS>BOND
     1     1     2   2
     2     1     4   1
     3    13     1  am
     4     4     3  ar
     5     3    12  ar
     6     4     5  ar
     7     5     6  ar
     8     6    11  ar
     9     7     8  ar
    10    11     7  ar
    11     9     8  ar
    12    10     9  ar
    13    12    10  ar
    14    12    11  ar
    15    14    13   1
    16    15    14   1
    17    14    17   1
    18    15    16   2
    19    24    15  am
    20    17    18   1
    21    18    19   2
    22    18    20  am
    23    21    22   1
    24    23    21   1
    25    21    33   1
    26    23    24   1
    27    23    25   1
    28    25    26   1
    29    26    27  ar
    30    26    28  ar
    31    27    29  ar
    32    28    30  ar
    33    29    31  ar
    34    30    31  ar
    35    33    32   1
    36    32    34   1
    37    32    44   1
    38    34    35   1
    39    34    37   1
    40    35    36   2
    41    35    45  am
    42    37    38   1
    43    38    39   1
    44    38    43   1
    45    39    40   1
    46    40    41   1
    47    41    42   1
    48    42    43   1
    49    43    44   1
    50    45    46   1
    51    46    47   1
    52    46    48   1
    53    46    49   1
    54     5    50   1
    55     6    51   1
    56     7    52   1
    57     8    53   1
    58     9    54   1
    59    10    55   1
    60    13    56   1
    61    14    57   1
    62    17    58   1
    63    17    59   1
    64    20    60   1
    65    20    61   1
    66    21    62   1
    67    22    63   1
    68    23    64   1
    69    24    65   1
    70    25    66   1
    71    25    67   1
    72    27    68   1
    73    28    69   1
    74    29    70   1
    75    30    71   1
    76    31    72   1
    77    32    73   1
    78    33    74   1
    79    33    75   1
    80    34    76   1
    81    37    77   1
    82    37    78   1
    83    38    79   1
    84    39    80   1
    85    39    81   1
    86    40    82   1
    87    40    83   1
    88    41    84   1
    89    41    85   1
    90    42    86   1
    91    42    87   1
    92    43    88   1
    93    44    89   1
    94    44    90   1
    95    45    91   1
    96    47    92   1
    97    47    93   1
    98    47    94   1
    99    48    95   1
   100    48    96   1
   101    48    97   1
   102    49    98   1
   103    49    99   1
   104    49   100   1
@<TRIPOS>SUBSTRUCTURE
     1  ROC      1

