@<TRIPOS>MOLECULE
3pww_ligand_081
   100   104
SMALL
GAST_HUCK
****
This file was generated by PARSER (from files_GN.cpp)

@<TRIPOS>ATOM
      1 C          -3.9411    0.9725   11.5854 C.2         1 ROC       0.2293
      2 O          -3.3729   -0.0619   11.9373 O.2         1 ROC      -0.3762
      3 N1         -5.8661   -0.2366   10.9073 N.ar        1 ROC      -0.2737
      4 C2         -5.3061    0.9337   11.3258 C.ar        1 ROC       0.1219
      5 C3         -6.1509    2.0615   11.4523 C.ar        1 ROC      -0.0136
      6 C4         -7.5257    1.9473   11.1673 C.ar        1 ROC      -0.0314
      7 C5         -9.4210    0.5649   10.3789 C.ar        1 ROC      -0.0444
      8 C6         -9.8946   -0.6754    9.9101 C.ar        1 ROC      -0.0546
      9 C7         -9.0132   -1.7653    9.7733 C.ar        1 ROC      -0.0545
     10 C8         -7.6561   -1.6213   10.1157 C.ar        1 ROC      -0.0370
     11 C4A        -8.0579    0.7218   10.7158 C.ar        1 ROC       0.0097
     12 C8A        -7.1769   -0.3855   10.5896 C.ar        1 ROC       0.0527
     13 N          -3.2328    2.0612   11.3170 N.am        1 ROC      -0.2600
     14 CA         -1.8216    2.2864   11.5063 C.3         1 ROC       0.1473
     15 C1         -1.4964    3.5904   10.9301 C.2         1 ROC       0.2045
     16 O1         -0.9125    4.4353   11.6088 O.2         1 ROC      -0.3943
     17 CB         -0.8465    1.1750   10.9720 C.3         1 ROC       0.0773
     18 CG         -1.0037    0.6840    9.6131 C.2         1 ROC       0.1780
     19 OD1        -2.0765    0.7112    9.0288 O.2         1 ROC      -0.3970
     20 ND2        -0.0089    0.0720    9.0032 N.am        1 ROC      -0.3007
     21 C9          0.0347    5.3877    8.7903 C.3         1 ROC       0.1194
     22 O2          0.8375    4.2405    8.4958 O.3         1 ROC      -0.3840
     23 CA1        -1.4774    4.9853    8.8450 C.3         1 ROC       0.0823
     24 N2         -1.7787    3.8389    9.6606 N.am        1 ROC      -0.2772
     25 CB1        -2.4519    6.1994    9.0622 C.3         1 ROC       0.0066
     26 CG1        -3.3712    6.4721    7.9192 C.ar        1 ROC      -0.0408
     27 CD1        -2.8511    6.7917    6.6423 C.ar        1 ROC      -0.0603
     28 CD2        -4.7748    6.4351    8.0868 C.ar        1 ROC      -0.0603
     29 CE1        -3.7094    7.0385    5.5538 C.ar        1 ROC      -0.0686
     30 CE2        -5.6350    6.6914    7.0023 C.ar        1 ROC      -0.0686
     31 CZ         -5.1036    6.9873    5.7347 C.ar        1 ROC      -0.0687
     32 N11         1.6675    7.1668    9.6343 N.4         1 ROC       0.2562
     33 CM          0.6365    6.1334   10.0215 C.3         1 ROC      -0.0008
     34 C21         2.7715    7.3684   10.6467 C.3         1 ROC       0.0688
     35 CC          2.3949    7.7107   12.0256 C.2         1 ROC       0.2251
     36 O3          1.2441    8.0326   12.2931 O.2         1 ROC      -0.3909
     37 C31         3.8543    8.3404   10.0670 C.3         1 ROC       0.0113
     38 C3A         3.3020    9.6720    9.4723 C.3         1 ROC      -0.0261
     39 C41         2.9025   10.7381   10.5419 C.3         1 ROC      -0.0494
     40 C51         2.3572   12.0347    9.8899 C.3         1 ROC      -0.0528
     41 C61         1.1710   11.7414    8.9370 C.3         1 ROC      -0.0526
     42 C71         1.5436   10.6784    7.8698 C.3         1 ROC      -0.0451
     43 C7A         2.1379    9.3698    8.4785 C.3         1 ROC       0.0024
     44 C81         1.0670    8.4557    9.1416 C.3         1 ROC      -0.0266
     45 N3          3.3154    7.6267   12.9785 N.am        1 ROC      -0.2771
     46 CD          3.2115    7.8872   14.3967 C.3         1 ROC       0.0448
     47 C11         2.2441    6.8766   15.0888 C.3         1 ROC      -0.0396
     48 C22         2.7573    9.3556   14.6639 C.3         1 ROC      -0.0396
     49 C32         4.6440    7.6900   14.9811 C.3         1 ROC      -0.0396
     50 H1         -5.7787    2.9597   11.7666 H           1 ROC       0.0729
     51 H2         -8.1263    2.7665   11.2828 H           1 ROC       0.0774
     52 H3        -10.0744    1.3493   10.4639 H           1 ROC       0.0657
     53 H4        -10.8822   -0.7866    9.6661 H           1 ROC       0.0652
     54 H5         -9.3597   -2.6590    9.4182 H           1 ROC       0.0657
     55 H6         -7.0194   -2.4143   10.0071 H           1 ROC       0.0653
     56 H7         -3.7327    2.8128   10.9579 H           1 ROC       0.1882
     57 H8         -1.6597    2.3311   12.5903 H           1 ROC       0.0826
     58 H9         -0.9269    0.3088   11.6280 H           1 ROC       0.0551
     59 H10         0.1839    1.5482   11.0837 H           1 ROC       0.0551
     60 H11        -0.1343   -0.2943    8.1151 H           1 ROC       0.1814
     61 H12         0.8507   -0.0120    9.4436 H           1 ROC       0.1814
     62 H13         0.1269    6.0421    7.9208 H           1 ROC       0.0672
     63 H14         1.6712    4.5938    8.1071 H           1 ROC       0.2101
     64 H15        -1.6718    4.5972    7.8403 H           1 ROC       0.0606
     65 H16        -2.2472    3.1275    9.1918 H           1 ROC       0.1857
     66 H17        -1.8811    7.1288    9.2141 H           1 ROC       0.0449
     67 H18        -3.0176    6.0469    9.9843 H           1 ROC       0.0449
     68 H19        -1.8396    6.8408    6.4904 H           1 ROC       0.0557
     69 H20        -5.1788    6.2183    8.9985 H           1 ROC       0.0557
     70 H21        -3.3216    7.2561    4.6326 H           1 ROC       0.0599
     71 H22        -6.6486    6.6631    7.1388 H           1 ROC       0.0599
     72 H23        -5.7280    7.1676    4.9461 H           1 ROC       0.0559
     73 H24         2.1384    6.7656    8.8163 H           1 ROC       0.2057
     74 H25         1.0771    5.3781   10.6783 H           1 ROC       0.0841
     75 H26        -0.1513    6.6157   10.5964 H           1 ROC       0.0841
     76 H27         3.2672    6.3942   10.7196 H           1 ROC       0.1100
     77 H28         4.3707    7.8105    9.2582 H           1 ROC       0.0348
     78 H29         4.6167    8.5683   10.8151 H           1 ROC       0.0348
     79 H30         4.1193   10.1147    8.8925 H           1 ROC       0.0309
     80 H31         3.7749   10.9909   11.1490 H           1 ROC       0.0268
     81 H32         2.1401   10.3435   11.2145 H           1 ROC       0.0268
     82 H33         3.1582   12.5242    9.3301 H           1 ROC       0.0265
     83 H34         2.0278   12.7224   10.6720 H           1 ROC       0.0265
     84 H35         0.8765   12.6669    8.4341 H           1 ROC       0.0265
     85 H36         0.3123   11.3935    9.5179 H           1 ROC       0.0265
     86 H37         2.2822   11.1175    7.1932 H           1 ROC       0.0270
     87 H38         0.6581   10.4464    7.2706 H           1 ROC       0.0270
     88 H39         2.5516    8.8002    7.6399 H           1 ROC       0.0355
     89 H40         0.5642    8.9761    9.9593 H           1 ROC       0.0818
     90 H41         0.3002    8.2470    8.3854 H           1 ROC       0.0818
     91 H42         4.1926    7.3437   12.6731 H           1 ROC       0.1859
     92 H43         2.2575    7.0144   16.1723 H           1 ROC       0.0254
     93 H44         2.5407    5.8485   14.8690 H           1 ROC       0.0254
     94 H45         1.2172    7.0149   14.7485 H           1 ROC       0.0254
     95 H46         2.7935    9.5810   15.7324 H           1 ROC       0.0254
     96 H47         1.7352    9.5213   14.3224 H           1 ROC       0.0254
     97 H48         3.4099   10.0591   14.1423 H           1 ROC       0.0254
     98 H49         4.6569    7.8739   16.0579 H           1 ROC       0.0254
     99 H50         5.3523    8.3766   14.5105 H           1 ROC       0.0254
    100 H51         4.9963    6.6701   14.8064 H           1 ROC       0.0254
@<TRIPOS>BOND
     1     1     2   2
     2     1     4   1
     3    13     1  am
     4     4     3  ar
     5     3    12  ar
     6     4     5  ar
     7     5     6  ar
     8     6    11  ar
     9     7     8  ar
    10    11     7  ar
    11     9     8  ar
    12    10     9  ar
    13    12    10  ar
    14    12    11  ar
    15    14    13   1
    16    15    14   1
    17    14    17   1
    18    15    16   2
    19    24    15  am
    20    17    18   1
    21    18    19   2
    22    18    20  am
    23    21    22   1
    24    23    21   1
    25    21    33   1
    26    23    24   1
    27    23    25   1
    28    25    26   1
    29    26    27  ar
    30    26    28  ar
    31    27    29  ar
    32    28    30  ar
    33    29    31  ar
    34    30    31  ar
    35    33    32   1
    36    32    34   1
    37    32    44   1
    38    34    35   1
    39    34    37   1
    40    35    36   2
    41    35    45  am
    42    37    38   1
    43    38    39   1
    44    38    43   1
    45    39    40   1
    46    40    41   1
    47    41    42   1
    48    42    43   1
    49    43    44   1
    50    45    46   1
    51    46    47   1
    52    46    48   1
    53    46    49   1
    54     5    50   1
    55     6    51   1
    56     7    52   1
    57     8    53   1
    58     9    54   1
    59    10    55   1
    60    13    56   1
    61    14    57   1
    62    17    58   1
    63    17    59   1
    64    20    60   1
    65    20    61   1
    66    21    62   1
    67    22    63   1
    68    23    64   1
    69    24    65   1
    70    25    66   1
    71    25    67   1
    72    27    68   1
    73    28    69   1
    74    29    70   1
    75    30    71   1
    76    31    72   1
    77    32    73   1
    78    33    74   1
    79    33    75   1
    80    34    76   1
    81    37    77   1
    82    37    78   1
    83    38    79   1
    84    39    80   1
    85    39    81   1
    86    40    82   1
    87    40    83   1
    88    41    84   1
    89    41    85   1
    90    42    86   1
    91    42    87   1
    92    43    88   1
    93    44    89   1
    94    44    90   1
    95    45    91   1
    96    47    92   1
    97    47    93   1
    98    47    94   1
    99    48    95   1
   100    48    96   1
   101    48    97   1
   102    49    98   1
   103    49    99   1
   104    49   100   1
@<TRIPOS>SUBSTRUCTURE
     1  ROC      1

