@<TRIPOS>MOLECULE
3pww_ligand_055
   100   104
SMALL
GAST_HUCK
****
This file was generated by PARSER (from files_GN.cpp)

@<TRIPOS>ATOM
      1 C          -3.1120   -0.9193   10.2536 C.2         1 ROC       0.2293
      2 O          -1.9808   -0.7473   10.6997 O.2         1 ROC      -0.3762
      3 N1         -3.6072   -2.2037   12.2002 N.ar        1 ROC      -0.2737
      4 C2         -4.0165   -1.6638   11.0160 C.ar        1 ROC       0.1219
      5 C3         -5.3558   -1.9096   10.6198 C.ar        1 ROC      -0.0136
      6 C4         -6.2169   -2.6524   11.4452 C.ar        1 ROC      -0.0314
      7 C5         -6.5765   -3.9341   13.5283 C.ar        1 ROC      -0.0444
      8 C6         -6.0498   -4.4681   14.7197 C.ar        1 ROC      -0.0546
      9 C7         -4.6992   -4.2547   15.0534 C.ar        1 ROC      -0.0545
     10 C8         -3.8750   -3.4840   14.2134 C.ar        1 ROC      -0.0370
     11 C4A        -5.7495   -3.1818   12.6644 C.ar        1 ROC       0.0097
     12 C8A        -4.3969   -2.9451   13.0210 C.ar        1 ROC       0.0527
     13 N          -3.4270   -0.4228    9.0576 N.am        1 ROC      -0.2600
     14 CA         -2.5876    0.3229    8.1486 C.3         1 ROC       0.1473
     15 C1         -3.2009    1.6114    7.8062 C.2         1 ROC       0.2045
     16 O1         -2.8833    2.1788    6.7667 O.2         1 ROC      -0.3943
     17 CB         -2.3381   -0.6102    6.9164 C.3         1 ROC       0.0773
     18 CG         -1.1480   -0.2825    6.1510 C.2         1 ROC       0.1780
     19 OD1        -1.2096    0.4581    5.1801 O.2         1 ROC      -0.3970
     20 ND2         0.0211   -0.8048    6.4596 N.am        1 ROC      -0.3007
     21 C9         -5.6688    3.4607    7.3000 C.3         1 ROC       0.1194
     22 O2         -5.3483    4.4327    6.2999 O.3         1 ROC      -0.3840
     23 CA1        -4.6786    3.4942    8.5308 C.3         1 ROC       0.0823
     24 N2         -3.9965    2.2299    8.6729 N.am        1 ROC      -0.2772
     25 CB1        -3.7264    4.7411    8.6369 C.3         1 ROC       0.0066
     26 CG1        -2.4242    4.4895    9.3185 C.ar        1 ROC      -0.0408
     27 CD1        -1.1981    4.6967    8.6402 C.ar        1 ROC      -0.0603
     28 CD2        -2.3872    3.9672   10.6346 C.ar        1 ROC      -0.0603
     29 CE1         0.0273    4.3666    9.2453 C.ar        1 ROC      -0.0686
     30 CE2        -1.1648    3.6110   11.2303 C.ar        1 ROC      -0.0686
     31 CZ          0.0448    3.8134   10.5388 C.ar        1 ROC      -0.0687
     32 N11        -7.8770    2.7091    8.6079 N.4         1 ROC       0.2562
     33 CM         -7.1935    3.6252    7.6144 C.3         1 ROC      -0.0008
     34 C21        -7.3910    1.2827    8.7187 C.3         1 ROC       0.0688
     35 CC         -7.3479    0.4342    7.5211 C.2         1 ROC       0.2251
     36 O3         -6.6678   -0.5825    7.5857 O.2         1 ROC      -0.3909
     37 C31        -8.0630    0.5836    9.9459 C.3         1 ROC       0.0113
     38 C3A        -9.6126    0.6850    9.9968 C.3         1 ROC      -0.0261
     39 C41       -10.3192   -0.3157    9.0320 C.3         1 ROC      -0.0494
     40 C51       -11.8593   -0.1843    9.0999 C.3         1 ROC      -0.0528
     41 C61       -12.3136    1.2687    8.8178 C.3         1 ROC      -0.0526
     42 C71       -11.6257    2.2764    9.7778 C.3         1 ROC      -0.0451
     43 C7A       -10.0674    2.1678    9.7977 C.3         1 ROC       0.0024
     44 C81        -9.3797    2.8227    8.5608 C.3         1 ROC      -0.0266
     45 N3         -7.9409    0.7587    6.3764 N.am        1 ROC      -0.2771
     46 CD         -7.8922    0.0736    5.1019 C.3         1 ROC       0.0448
     47 C11        -6.4581    0.1512    4.4910 C.3         1 ROC      -0.0396
     48 C22        -8.8798    0.8283    4.1611 C.3         1 ROC      -0.0396
     49 C32        -8.3573   -1.4128    5.2208 C.3         1 ROC      -0.0396
     50 H1         -5.7205   -1.5630    9.7336 H           1 ROC       0.0729
     51 H2         -7.1829   -2.8116   11.1486 H           1 ROC       0.0774
     52 H3         -7.5588   -4.1021   13.2983 H           1 ROC       0.0657
     53 H4         -6.6490   -5.0230   15.3371 H           1 ROC       0.0652
     54 H5         -4.3117   -4.6541   15.9099 H           1 ROC       0.0657
     55 H6         -2.8964   -3.3259   14.4658 H           1 ROC       0.0653
     56 H7         -4.3243   -0.5894    8.7331 H           1 ROC       0.1882
     57 H8         -1.6240    0.5455    8.6175 H           1 ROC       0.0826
     58 H9         -3.2158   -0.5965    6.2620 H           1 ROC       0.0551
     59 H10        -2.2233   -1.6445    7.2579 H           1 ROC       0.0551
     60 H11         0.8047   -0.5909    5.9296 H           1 ROC       0.1814
     61 H12         0.1018   -1.4230    7.2054 H           1 ROC       0.1814
     62 H13        -5.5634    2.5050    6.7846 H           1 ROC       0.0672
     63 H14        -4.4512    4.1949    5.9832 H           1 ROC       0.2101
     64 H15        -5.2941    3.5363    9.4344 H           1 ROC       0.0606
     65 H16        -4.1709    1.7592    9.5054 H           1 ROC       0.1857
     66 H17        -4.2450    5.5349    9.1823 H           1 ROC       0.0449
     67 H18        -3.5162    5.1433    7.6473 H           1 ROC       0.0449
     68 H19        -1.1903    5.0728    7.6878 H           1 ROC       0.0557
     69 H20        -3.2554    3.8047   11.1533 H           1 ROC       0.0557
     70 H21         0.9029    4.5073    8.7344 H           1 ROC       0.0599
     71 H22        -1.1542    3.1794   12.1571 H           1 ROC       0.0599
     72 H23         0.9329    3.5534   10.9709 H           1 ROC       0.0559
     73 H24        -7.6241    3.1245    9.5074 H           1 ROC       0.2057
     74 H25        -7.7222    3.5645    6.6568 H           1 ROC       0.0841
     75 H26        -7.3355    4.6511    7.9765 H           1 ROC       0.0841
     76 H27        -6.3509    1.3698    9.0256 H           1 ROC       0.1100
     77 H28        -7.6812    1.0651   10.8529 H           1 ROC       0.0348
     78 H29        -7.7691   -0.4665   10.0092 H           1 ROC       0.0348
     79 H30        -9.9075    0.3863   11.0118 H           1 ROC       0.0309
     80 H31       -10.0410   -1.3388    9.3006 H           1 ROC       0.0268
     81 H32       -10.0016   -0.1385    8.0061 H           1 ROC       0.0268
     82 H33       -12.2050   -0.4871   10.0935 H           1 ROC       0.0265
     83 H34       -12.3114   -0.8558    8.3667 H           1 ROC       0.0265
     84 H35       -13.3972    1.3334    8.9471 H           1 ROC       0.0265
     85 H36       -12.0868    1.5283    7.7807 H           1 ROC       0.0265
     86 H37       -12.0003    2.0906   10.7901 H           1 ROC       0.0270
     87 H38       -11.9245    3.2918    9.5059 H           1 ROC       0.0270
     88 H39        -9.7274    2.7364   10.6704 H           1 ROC       0.0355
     89 H40        -9.7756    2.3772    7.6463 H           1 ROC       0.0818
     90 H41        -9.6561    3.8804    8.5507 H           1 ROC       0.0818
     91 H42        -8.4708    1.5674    6.3896 H           1 ROC       0.1859
     92 H43        -6.4430   -0.2777    3.4863 H           1 ROC       0.0254
     93 H44        -5.7386   -0.3978    5.1003 H           1 ROC       0.0254
     94 H45        -6.1252    1.1892    4.4229 H           1 ROC       0.0254
     95 H46        -8.8864    0.3803    3.1636 H           1 ROC       0.0254
     96 H47        -8.5943    1.8786    4.0612 H           1 ROC       0.0254
     97 H48        -9.8965    0.7881    4.5616 H           1 ROC       0.0254
     98 H49        -8.4981   -1.8545    4.2326 H           1 ROC       0.0254
     99 H50        -9.3036   -1.4749    5.7619 H           1 ROC       0.0254
    100 H51        -7.6215   -2.0212    5.7488 H           1 ROC       0.0254
@<TRIPOS>BOND
     1     1     2   2
     2     1     4   1
     3    13     1  am
     4     4     3  ar
     5     3    12  ar
     6     4     5  ar
     7     5     6  ar
     8     6    11  ar
     9     7     8  ar
    10    11     7  ar
    11     9     8  ar
    12    10     9  ar
    13    12    10  ar
    14    12    11  ar
    15    14    13   1
    16    15    14   1
    17    14    17   1
    18    15    16   2
    19    24    15  am
    20    17    18   1
    21    18    19   2
    22    18    20  am
    23    21    22   1
    24    23    21   1
    25    21    33   1
    26    23    24   1
    27    23    25   1
    28    25    26   1
    29    26    27  ar
    30    26    28  ar
    31    27    29  ar
    32    28    30  ar
    33    29    31  ar
    34    30    31  ar
    35    33    32   1
    36    32    34   1
    37    32    44   1
    38    34    35   1
    39    34    37   1
    40    35    36   2
    41    35    45  am
    42    37    38   1
    43    38    39   1
    44    38    43   1
    45    39    40   1
    46    40    41   1
    47    41    42   1
    48    42    43   1
    49    43    44   1
    50    45    46   1
    51    46    47   1
    52    46    48   1
    53    46    49   1
    54     5    50   1
    55     6    51   1
    56     7    52   1
    57     8    53   1
    58     9    54   1
    59    10    55   1
    60    13    56   1
    61    14    57   1
    62    17    58   1
    63    17    59   1
    64    20    60   1
    65    20    61   1
    66    21    62   1
    67    22    63   1
    68    23    64   1
    69    24    65   1
    70    25    66   1
    71    25    67   1
    72    27    68   1
    73    28    69   1
    74    29    70   1
    75    30    71   1
    76    31    72   1
    77    32    73   1
    78    33    74   1
    79    33    75   1
    80    34    76   1
    81    37    77   1
    82    37    78   1
    83    38    79   1
    84    39    80   1
    85    39    81   1
    86    40    82   1
    87    40    83   1
    88    41    84   1
    89    41    85   1
    90    42    86   1
    91    42    87   1
    92    43    88   1
    93    44    89   1
    94    44    90   1
    95    45    91   1
    96    47    92   1
    97    47    93   1
    98    47    94   1
    99    48    95   1
   100    48    96   1
   101    48    97   1
   102    49    98   1
   103    49    99   1
   104    49   100   1
@<TRIPOS>SUBSTRUCTURE
     1  ROC      1

