@<TRIPOS>MOLECULE
3pww_ligand_073
   100   104
SMALL
GAST_HUCK
****
This file was generated by PARSER (from files_GN.cpp)

@<TRIPOS>ATOM
      1 C          -3.9840   -0.7544    9.7130 C.2         1 ROC       0.2293
      2 O          -4.8718   -0.7872    8.8628 O.2         1 ROC      -0.3762
      3 N1         -5.4309   -1.8987   11.1741 N.ar        1 ROC      -0.2737
      4 C2         -4.1766   -1.4602   10.8940 C.ar        1 ROC       0.1219
      5 C3         -3.1376   -1.8221   11.7879 C.ar        1 ROC      -0.0136
      6 C4         -3.4164   -2.6604   12.8828 C.ar        1 ROC      -0.0314
      7 C5         -5.0461   -4.0567   14.1278 C.ar        1 ROC      -0.0444
      8 C6         -6.3708   -4.5221   14.2702 C.ar        1 ROC      -0.0546
      9 C7         -7.3806   -4.0493   13.4067 C.ar        1 ROC      -0.0545
     10 C8         -7.0757   -3.1190   12.4007 C.ar        1 ROC      -0.0370
     11 C4A        -4.7245   -3.1387   13.0996 C.ar        1 ROC       0.0097
     12 C8A        -5.7486   -2.6931   12.2242 C.ar        1 ROC       0.0527
     13 N          -2.8594   -0.0978    9.4486 N.am        1 ROC      -0.2600
     14 CA         -2.4895    0.5696    8.2233 C.3         1 ROC       0.1473
     15 C1         -3.3016    1.7694    8.0143 C.2         1 ROC       0.2045
     16 O1         -4.5150    1.6568    7.8905 O.2         1 ROC      -0.3943
     17 CB         -2.4464   -0.4133    6.9982 C.3         1 ROC       0.0773
     18 CG         -1.3087   -0.1990    6.1174 C.2         1 ROC       0.1780
     19 OD1        -1.3885    0.5753    5.1747 O.2         1 ROC      -0.3970
     20 ND2        -0.1457   -0.7615    6.3730 N.am        1 ROC      -0.3007
     21 C9         -3.4089    5.1012    6.9733 C.3         1 ROC       0.1194
     22 O2         -3.7170    6.4647    7.2670 O.3         1 ROC      -0.3840
     23 CA1        -3.3959    4.2358    8.2781 C.3         1 ROC       0.0823
     24 N2         -2.7435    2.9721    8.0349 N.am        1 ROC      -0.2772
     25 CB1        -2.6520    4.9359    9.4657 C.3         1 ROC       0.0066
     26 CG1        -2.3806    4.0360   10.6244 C.ar        1 ROC      -0.0408
     27 CD1        -3.4392    3.5731   11.4392 C.ar        1 ROC      -0.0603
     28 CD2        -1.0700    3.5641   10.8867 C.ar        1 ROC      -0.0603
     29 CE1        -3.1997    2.6562   12.4803 C.ar        1 ROC      -0.0686
     30 CE2        -0.8310    2.6413   11.9224 C.ar        1 ROC      -0.0686
     31 CZ         -1.8939    2.1870   12.7203 C.ar        1 ROC      -0.0687
     32 N11        -5.6581    5.3104    5.6638 N.4         1 ROC       0.2562
     33 CM         -4.3486    4.5777    5.8311 C.3         1 ROC      -0.0008
     34 C21        -6.6979    5.0800    6.7394 C.3         1 ROC       0.0688
     35 CC         -7.2249    3.7242    6.9375 C.2         1 ROC       0.2251
     36 O3         -7.0176    2.8508    6.1076 O.2         1 ROC      -0.3909
     37 C31        -7.8517    6.1265    6.5618 C.3         1 ROC       0.0113
     38 C3A        -8.4530    6.2243    5.1227 C.3         1 ROC      -0.0261
     39 C41        -9.4839    5.1013    4.7910 C.3         1 ROC      -0.0494
     40 C51       -10.0383    5.2271    3.3470 C.3         1 ROC      -0.0528
     41 C61        -8.8977    5.2440    2.3008 C.3         1 ROC      -0.0526
     42 C71        -7.8769    6.3703    2.5997 C.3         1 ROC      -0.0451
     43 C7A        -7.3146    6.3357    4.0586 C.3         1 ROC       0.0024
     44 C81        -6.2171    5.2483    4.2697 C.3         1 ROC      -0.0266
     45 N3         -7.9496    3.4671    8.0264 N.am        1 ROC      -0.2771
     46 CD         -8.7010    2.2832    8.3842 C.3         1 ROC       0.0448
     47 C11        -9.3347    2.5584    9.7850 C.3         1 ROC      -0.0396
     48 C22        -7.7881    1.0232    8.4952 C.3         1 ROC      -0.0396
     49 C32        -9.8508    2.0402    7.3597 C.3         1 ROC      -0.0396
     50 H1         -2.1750   -1.5264   11.6207 H           1 ROC       0.0729
     51 H2         -2.6539   -2.9454   13.5000 H           1 ROC       0.0774
     52 H3         -4.3211   -4.4168   14.7554 H           1 ROC       0.0657
     53 H4         -6.5996   -5.2110   14.9904 H           1 ROC       0.0652
     54 H5         -8.3356   -4.3974   13.5016 H           1 ROC       0.0657
     55 H6         -7.8112   -2.7792   11.7768 H           1 ROC       0.0653
     56 H7         -2.1859   -0.0823   10.1468 H           1 ROC       0.1882
     57 H8         -1.4601    0.8823    8.4237 H           1 ROC       0.0826
     58 H9         -3.3725   -0.3391    6.4199 H           1 ROC       0.0551
     59 H10        -2.3951   -1.4433    7.3572 H           1 ROC       0.0551
     60 H11         0.6216   -0.5730    5.8052 H           1 ROC       0.1814
     61 H12        -0.0438   -1.3601    7.1356 H           1 ROC       0.1814
     62 H13        -2.3815    5.1082    6.5978 H           1 ROC       0.0672
     63 H14        -3.5480    6.9557    6.4354 H           1 ROC       0.2101
     64 H15        -4.4305    4.0841    8.5968 H           1 ROC       0.0606
     65 H16        -1.7764    2.9848    8.0361 H           1 ROC       0.1857
     66 H17        -3.2430    5.7841    9.8194 H           1 ROC       0.0449
     67 H18        -1.7125    5.3454    9.0862 H           1 ROC       0.0449
     68 H19        -4.3986    3.8921   11.2706 H           1 ROC       0.0557
     69 H20        -0.2836    3.8661   10.3073 H           1 ROC       0.0557
     70 H21        -3.9741    2.3258   13.0584 H           1 ROC       0.0599
     71 H22         0.1190    2.2999   12.0920 H           1 ROC       0.0599
     72 H23        -1.7208    1.5186   13.4750 H           1 ROC       0.0559
     73 H24        -5.4063    6.2940    5.7684 H           1 ROC       0.2057
     74 H25        -4.5235    3.5069    5.9393 H           1 ROC       0.0841
     75 H26        -3.7680    4.6827    4.9081 H           1 ROC       0.0841
     76 H27        -6.2177    5.3464    7.6838 H           1 ROC       0.1100
     77 H28        -7.4396    7.1107    6.8086 H           1 ROC       0.0348
     78 H29        -8.6565    5.9516    7.2825 H           1 ROC       0.0348
     79 H30        -9.0177    7.1634    5.0903 H           1 ROC       0.0309
     80 H31       -10.3235    5.1569    5.4899 H           1 ROC       0.0268
     81 H32        -9.0303    4.1162    4.8938 H           1 ROC       0.0268
     82 H33       -10.6258    6.1476    3.2603 H           1 ROC       0.0265
     83 H34       -10.7064    4.3853    3.1376 H           1 ROC       0.0265
     84 H35        -9.3248    5.3998    1.3053 H           1 ROC       0.0265
     85 H36        -8.3900    4.2773    2.2954 H           1 ROC       0.0265
     86 H37        -8.3722    7.3338    2.4381 H           1 ROC       0.0270
     87 H38        -7.0567    6.3096    1.8788 H           1 ROC       0.0270
     88 H39        -6.8190    7.3006    4.2147 H           1 ROC       0.0355
     89 H40        -6.6081    4.2544    4.0471 H           1 ROC       0.0818
     90 H41        -5.4245    5.4546    3.5448 H           1 ROC       0.0818
     91 H42        -7.9875    4.1909    8.6714 H           1 ROC       0.1859
     92 H43        -9.9490    1.7142   10.1104 H           1 ROC       0.0254
     93 H44        -9.9702    3.4469    9.7555 H           1 ROC       0.0254
     94 H45        -8.5598    2.7213   10.5368 H           1 ROC       0.0254
     95 H46        -8.3587    0.1629    8.8516 H           1 ROC       0.0254
     96 H47        -6.9706    1.2069    9.1948 H           1 ROC       0.0254
     97 H48        -7.3604    0.7575    7.5282 H           1 ROC       0.0254
     98 H49       -10.4943    1.2182    7.6857 H           1 ROC       0.0254
     99 H50        -9.4533    1.7856    6.3769 H           1 ROC       0.0254
    100 H51       -10.4682    2.9360    7.2576 H           1 ROC       0.0254
@<TRIPOS>BOND
     1     1     2   2
     2     1     4   1
     3    13     1  am
     4     4     3  ar
     5     3    12  ar
     6     4     5  ar
     7     5     6  ar
     8     6    11  ar
     9     7     8  ar
    10    11     7  ar
    11     9     8  ar
    12    10     9  ar
    13    12    10  ar
    14    12    11  ar
    15    14    13   1
    16    15    14   1
    17    14    17   1
    18    15    16   2
    19    24    15  am
    20    17    18   1
    21    18    19   2
    22    18    20  am
    23    21    22   1
    24    23    21   1
    25    21    33   1
    26    23    24   1
    27    23    25   1
    28    25    26   1
    29    26    27  ar
    30    26    28  ar
    31    27    29  ar
    32    28    30  ar
    33    29    31  ar
    34    30    31  ar
    35    33    32   1
    36    32    34   1
    37    32    44   1
    38    34    35   1
    39    34    37   1
    40    35    36   2
    41    35    45  am
    42    37    38   1
    43    38    39   1
    44    38    43   1
    45    39    40   1
    46    40    41   1
    47    41    42   1
    48    42    43   1
    49    43    44   1
    50    45    46   1
    51    46    47   1
    52    46    48   1
    53    46    49   1
    54     5    50   1
    55     6    51   1
    56     7    52   1
    57     8    53   1
    58     9    54   1
    59    10    55   1
    60    13    56   1
    61    14    57   1
    62    17    58   1
    63    17    59   1
    64    20    60   1
    65    20    61   1
    66    21    62   1
    67    22    63   1
    68    23    64   1
    69    24    65   1
    70    25    66   1
    71    25    67   1
    72    27    68   1
    73    28    69   1
    74    29    70   1
    75    30    71   1
    76    31    72   1
    77    32    73   1
    78    33    74   1
    79    33    75   1
    80    34    76   1
    81    37    77   1
    82    37    78   1
    83    38    79   1
    84    39    80   1
    85    39    81   1
    86    40    82   1
    87    40    83   1
    88    41    84   1
    89    41    85   1
    90    42    86   1
    91    42    87   1
    92    43    88   1
    93    44    89   1
    94    44    90   1
    95    45    91   1
    96    47    92   1
    97    47    93   1
    98    47    94   1
    99    48    95   1
   100    48    96   1
   101    48    97   1
   102    49    98   1
   103    49    99   1
   104    49   100   1
@<TRIPOS>SUBSTRUCTURE
     1  ROC      1

