@<TRIPOS>MOLECULE
3pww_ligand_031
   100   104
SMALL
GAST_HUCK
****
This file was generated by PARSER (from files_GN.cpp)

@<TRIPOS>ATOM
      1 C          -6.9491    0.5963    5.0970 C.2         1 ROC       0.2293
      2 O          -7.4898    0.1636    6.1103 O.2         1 ROC      -0.3762
      3 N1         -7.1580    1.3831    2.8618 N.ar        1 ROC      -0.2737
      4 C2         -7.6713    0.6763    3.9097 C.ar        1 ROC       0.1219
      5 C3         -8.9654    0.1216    3.7555 C.ar        1 ROC      -0.0136
      6 C4         -9.6753    0.3149    2.5567 C.ar        1 ROC      -0.0314
      7 C5         -9.8007    1.3193    0.3006 C.ar        1 ROC      -0.0444
      8 C6         -9.2004    2.0929   -0.7077 C.ar        1 ROC      -0.0546
      9 C7         -7.9040    2.6109   -0.5282 C.ar        1 ROC      -0.0545
     10 C8         -7.2046    2.3628    0.6697 C.ar        1 ROC      -0.0370
     11 C4A        -9.1101    1.0694    1.5074 C.ar        1 ROC       0.0097
     12 C8A        -7.8067    1.6009    1.6894 C.ar        1 ROC       0.0527
     13 N          -5.7019    1.0513    5.1610 N.am        1 ROC      -0.2600
     14 CA         -4.9330    1.3225    6.3465 C.3         1 ROC       0.1473
     15 C1         -4.3379    2.6502    6.1714 C.2         1 ROC       0.2045
     16 O1         -3.3131    2.7695    5.5069 O.2         1 ROC      -0.3943
     17 CB         -3.9594    0.1389    6.6937 C.3         1 ROC       0.0773
     18 CG         -2.6387    0.1115    6.0908 C.2         1 ROC       0.1780
     19 OD1        -2.4315    0.6491    5.0106 O.2         1 ROC      -0.3970
     20 ND2        -1.6627   -0.6245    6.5819 N.am        1 ROC      -0.3007
     21 C9         -2.8909    5.1157    7.0985 C.3         1 ROC       0.1194
     22 O2         -2.5853    3.9284    7.8285 O.3         1 ROC      -0.3840
     23 CA1        -4.4111    5.0822    6.6464 C.3         1 ROC       0.0823
     24 N2         -4.9371    3.7351    6.6448 N.am        1 ROC      -0.2772
     25 CB1        -5.3960    5.9593    7.4866 C.3         1 ROC       0.0066
     26 CG1        -6.6542    6.3254    6.7693 C.ar        1 ROC      -0.0408
     27 CD1        -7.9213    5.9600    7.2840 C.ar        1 ROC      -0.0603
     28 CD2        -6.6058    7.0736    5.5676 C.ar        1 ROC      -0.0603
     29 CE1        -9.1067    6.3372    6.6244 C.ar        1 ROC      -0.0686
     30 CE2        -7.7919    7.4555    4.9088 C.ar        1 ROC      -0.0686
     31 CZ         -9.0397    7.0870    5.4366 C.ar        1 ROC      -0.0687
     32 N11        -0.9627    6.3337    8.4152 N.4         1 ROC       0.2562
     33 CM         -2.4032    6.3306    7.9470 C.3         1 ROC      -0.0008
     34 C21        -0.4506    5.0943    9.1156 C.3         1 ROC       0.0688
     35 CC         -1.3191    4.5478   10.1682 C.2         1 ROC       0.2251
     36 O3         -1.7404    5.2967   11.0368 O.2         1 ROC      -0.3909
     37 C31         1.0482    5.2169    9.5706 C.3         1 ROC       0.0113
     38 C3A         1.4934    6.5857   10.1730 C.3         1 ROC      -0.0261
     39 C41         1.2375    6.7245   11.7080 C.3         1 ROC      -0.0494
     40 C51         1.6844    8.1050   12.2495 C.3         1 ROC      -0.0528
     41 C61         1.0128    9.2624   11.4718 C.3         1 ROC      -0.0526
     42 C71         1.2969    9.1542    9.9510 C.3         1 ROC      -0.0451
     43 C7A         0.9018    7.7713    9.3431 C.3         1 ROC       0.0024
     44 C81        -0.6307    7.6043    9.1404 C.3         1 ROC      -0.0266
     45 N3         -1.7409    3.2867   10.1041 N.am        1 ROC      -0.2771
     46 CD         -2.7456    2.5935   10.8838 C.3         1 ROC       0.0448
     47 C11        -3.3702    1.5096    9.9523 C.3         1 ROC      -0.0396
     48 C22        -3.9146    3.5150   11.3665 C.3         1 ROC      -0.0396
     49 C32        -2.0586    1.8775   12.0799 C.3         1 ROC      -0.0396
     50 H1         -9.4075   -0.4100    4.5121 H           1 ROC       0.0729
     51 H2        -10.6147   -0.0853    2.4639 H           1 ROC       0.0774
     52 H3        -10.7389    0.9466    0.1517 H           1 ROC       0.0657
     53 H4         -9.7082    2.2843   -1.5749 H           1 ROC       0.0652
     54 H5         -7.4696    3.1714   -1.2662 H           1 ROC       0.0657
     55 H6         -6.2669    2.7491    0.7968 H           1 ROC       0.0653
     56 H7         -5.2933    1.3168    4.3239 H           1 ROC       0.1882
     57 H8         -5.6217    1.3864    7.1995 H           1 ROC       0.0826
     58 H9         -4.4472   -0.8023    6.4233 H           1 ROC       0.0551
     59 H10        -3.8383    0.1142    7.7785 H           1 ROC       0.0551
     60 H11        -0.8039   -0.6485    6.1267 H           1 ROC       0.1814
     61 H12        -1.7951   -1.1653    7.3831 H           1 ROC       0.1814
     62 H13        -2.2732    5.1058    6.1874 H           1 ROC       0.0672
     63 H14        -1.9345    3.4456    7.2702 H           1 ROC       0.2101
     64 H15        -4.4552    5.4587    5.6189 H           1 ROC       0.0606
     65 H16        -5.7857    3.6022    7.1040 H           1 ROC       0.1857
     66 H17        -4.9233    6.9034    7.7733 H           1 ROC       0.0449
     67 H18        -5.6315    5.4244    8.4134 H           1 ROC       0.0449
     68 H19        -7.9926    5.4185    8.1494 H           1 ROC       0.0557
     69 H20        -5.7073    7.3632    5.1715 H           1 ROC       0.0557
     70 H21       -10.0135    6.0705    7.0137 H           1 ROC       0.0599
     71 H22        -7.7417    8.0098    4.0490 H           1 ROC       0.0599
     72 H23        -9.8992    7.3669    4.9624 H           1 ROC       0.0559
     73 H24        -0.4173    6.3865    7.5522 H           1 ROC       0.2057
     74 H25        -3.0575    6.4493    8.8106 H           1 ROC       0.0841
     75 H26        -2.5340    7.2067    7.3063 H           1 ROC       0.0841
     76 H27        -0.4067    4.3414    8.3235 H           1 ROC       0.1100
     77 H28         1.6706    5.0536    8.6835 H           1 ROC       0.0348
     78 H29         1.3027    4.4072   10.2606 H           1 ROC       0.0348
     79 H30         2.5836    6.6307   10.0604 H           1 ROC       0.0309
     80 H31         1.7858    5.9416   12.2411 H           1 ROC       0.0268
     81 H32         0.1809    6.6009   11.9429 H           1 ROC       0.0268
     82 H33         2.7703    8.1938   12.1626 H           1 ROC       0.0265
     83 H34         1.4234    8.1812   13.3070 H           1 ROC       0.0265
     84 H35         1.3975   10.2161   11.8423 H           1 ROC       0.0265
     85 H36        -0.0674    9.2501   11.6494 H           1 ROC       0.0265
     86 H37         2.3686    9.3106    9.7899 H           1 ROC       0.0270
     87 H38         0.7736    9.9612    9.4276 H           1 ROC       0.0270
     88 H39         1.3478    7.7330    8.3441 H           1 ROC       0.0355
     89 H40        -1.1390    7.6363   10.1004 H           1 ROC       0.0818
     90 H41        -0.9758    8.4639    8.5593 H           1 ROC       0.0818
     91 H42        -1.3772    2.7708    9.3640 H           1 ROC       0.1859
     92 H43        -4.1067    0.9047   10.4889 H           1 ROC       0.0254
     93 H44        -2.6020    0.8396    9.5581 H           1 ROC       0.0254
     94 H45        -3.8768    1.9853    9.1107 H           1 ROC       0.0254
     95 H46        -4.7332    2.9267   11.7914 H           1 ROC       0.0254
     96 H47        -4.3091    4.1035   10.5314 H           1 ROC       0.0254
     97 H48        -3.5868    4.2011   12.1461 H           1 ROC       0.0254
     98 H49        -2.7873    1.3276   12.6806 H           1 ROC       0.0254
     99 H50        -1.5610    2.6043   12.7194 H           1 ROC       0.0254
    100 H51        -1.3049    1.1734   11.7174 H           1 ROC       0.0254
@<TRIPOS>BOND
     1     1     2   2
     2     1     4   1
     3    13     1  am
     4     4     3  ar
     5     3    12  ar
     6     4     5  ar
     7     5     6  ar
     8     6    11  ar
     9     7     8  ar
    10    11     7  ar
    11     9     8  ar
    12    10     9  ar
    13    12    10  ar
    14    12    11  ar
    15    14    13   1
    16    15    14   1
    17    14    17   1
    18    15    16   2
    19    24    15  am
    20    17    18   1
    21    18    19   2
    22    18    20  am
    23    21    22   1
    24    23    21   1
    25    21    33   1
    26    23    24   1
    27    23    25   1
    28    25    26   1
    29    26    27  ar
    30    26    28  ar
    31    27    29  ar
    32    28    30  ar
    33    29    31  ar
    34    30    31  ar
    35    33    32   1
    36    32    34   1
    37    32    44   1
    38    34    35   1
    39    34    37   1
    40    35    36   2
    41    35    45  am
    42    37    38   1
    43    38    39   1
    44    38    43   1
    45    39    40   1
    46    40    41   1
    47    41    42   1
    48    42    43   1
    49    43    44   1
    50    45    46   1
    51    46    47   1
    52    46    48   1
    53    46    49   1
    54     5    50   1
    55     6    51   1
    56     7    52   1
    57     8    53   1
    58     9    54   1
    59    10    55   1
    60    13    56   1
    61    14    57   1
    62    17    58   1
    63    17    59   1
    64    20    60   1
    65    20    61   1
    66    21    62   1
    67    22    63   1
    68    23    64   1
    69    24    65   1
    70    25    66   1
    71    25    67   1
    72    27    68   1
    73    28    69   1
    74    29    70   1
    75    30    71   1
    76    31    72   1
    77    32    73   1
    78    33    74   1
    79    33    75   1
    80    34    76   1
    81    37    77   1
    82    37    78   1
    83    38    79   1
    84    39    80   1
    85    39    81   1
    86    40    82   1
    87    40    83   1
    88    41    84   1
    89    41    85   1
    90    42    86   1
    91    42    87   1
    92    43    88   1
    93    44    89   1
    94    44    90   1
    95    45    91   1
    96    47    92   1
    97    47    93   1
    98    47    94   1
    99    48    95   1
   100    48    96   1
   101    48    97   1
   102    49    98   1
   103    49    99   1
   104    49   100   1
@<TRIPOS>SUBSTRUCTURE
     1  ROC      1

