@<TRIPOS>MOLECULE
3pww_ligand_014
   100   104
SMALL
GAST_HUCK
****
This file was generated by PARSER (from files_GN.cpp)

@<TRIPOS>ATOM
      1 C          -3.8021    2.7923    6.4436 C.2         1 ROC       0.2293
      2 O          -4.8264    2.5149    5.8254 O.2         1 ROC      -0.3762
      3 N1         -4.0992    5.0765    5.8357 N.ar        1 ROC      -0.2737
      4 C2         -3.4079    4.1321    6.5391 C.ar        1 ROC       0.1219
      5 C3         -2.3327    4.5763    7.3423 C.ar        1 ROC      -0.0136
      6 C4         -1.9877    5.9432    7.3760 C.ar        1 ROC      -0.0314
      7 C5         -2.3879    8.2508    6.5853 C.ar        1 ROC      -0.0444
      8 C6         -3.1412    9.1393    5.8011 C.ar        1 ROC      -0.0546
      9 C7         -4.2359    8.6706    5.0490 C.ar        1 ROC      -0.0545
     10 C8         -4.5738    7.3037    5.0743 C.ar        1 ROC      -0.0370
     11 C4A        -2.7141    6.8741    6.6127 C.ar        1 ROC       0.0097
     12 C8A        -3.8093    6.4015    5.8390 C.ar        1 ROC       0.0527
     13 N          -3.0987    1.8121    6.9799 N.am        1 ROC      -0.2600
     14 CA         -3.4417    0.4126    7.0551 C.3         1 ROC       0.1473
     15 C1         -4.3718    0.2236    8.1687 C.2         1 ROC       0.2045
     16 O1         -5.4827   -0.2319    7.9626 O.2         1 ROC      -0.3943
     17 CB         -2.1493   -0.4404    7.2438 C.3         1 ROC       0.0773
     18 CG         -1.1217   -0.3063    6.2256 C.2         1 ROC       0.1780
     19 OD1        -1.2384    0.4297    5.2553 O.2         1 ROC      -0.3970
     20 ND2         0.0098   -0.9633    6.3556 N.am        1 ROC      -0.3007
     21 C9         -5.7699    1.8140   10.5708 C.3         1 ROC       0.1194
     22 O2         -5.8699    2.5316   11.8032 O.3         1 ROC      -0.3840
     23 CA1        -4.6781    0.6727   10.6301 C.3         1 ROC       0.0823
     24 N2         -3.9674    0.5815    9.3814 N.am        1 ROC      -0.2772
     25 CB1        -3.6088    0.7810   11.7749 C.3         1 ROC       0.0066
     26 CG1        -2.4030    1.6123   11.4774 C.ar        1 ROC      -0.0408
     27 CD1        -2.4707    3.0307   11.5047 C.ar        1 ROC      -0.0603
     28 CD2        -1.1891    1.0043   11.0857 C.ar        1 ROC      -0.0603
     29 CE1        -1.3513    3.8019   11.1492 C.ar        1 ROC      -0.0686
     30 CE2        -0.0743    1.7766   10.7198 C.ar        1 ROC      -0.0686
     31 CZ         -0.1546    3.1824   10.7598 C.ar        1 ROC      -0.0687
     32 N11        -8.0932    2.2016    9.4217 N.4         1 ROC       0.2562
     33 CM         -7.2036    1.2830   10.2220 C.3         1 ROC      -0.0008
     34 C21        -9.5744    1.9064    9.5532 C.3         1 ROC       0.0688
     35 CC        -10.0597    0.5549    9.2253 C.2         1 ROC       0.2251
     36 O3         -9.3538   -0.2147    8.5915 O.2         1 ROC      -0.3909
     37 C31       -10.3867    3.0282    8.8225 C.3         1 ROC       0.0113
     38 C3A        -9.9652    3.2766    7.3448 C.3         1 ROC      -0.0261
     39 C41       -10.4543    2.1846    6.3402 C.3         1 ROC      -0.0494
     40 C51        -9.9815    2.4657    4.8909 C.3         1 ROC      -0.0528
     41 C61        -8.4471    2.6724    4.8184 C.3         1 ROC      -0.0526
     42 C71        -7.9828    3.7749    5.8026 C.3         1 ROC      -0.0451
     43 C7A        -8.4238    3.5144    7.2756 C.3         1 ROC       0.0024
     44 C81        -7.6416    2.3726    7.9966 C.3         1 ROC      -0.0266
     45 N3        -11.2667    0.1704    9.6305 N.am        1 ROC      -0.2771
     46 CD        -11.9464   -1.0976    9.4605 C.3         1 ROC       0.0448
     47 C11       -13.4727   -0.7756    9.4677 C.3         1 ROC      -0.0396
     48 C22       -11.6077   -2.0250   10.6671 C.3         1 ROC      -0.0396
     49 C32       -11.6105   -1.8083    8.1105 C.3         1 ROC      -0.0396
     50 H1         -1.7921    3.9293    7.9201 H           1 ROC       0.0729
     51 H2         -1.2017    6.2449    7.9576 H           1 ROC       0.0774
     52 H3         -1.5960    8.6064    7.1283 H           1 ROC       0.0657
     53 H4         -2.8937   10.1323    5.7728 H           1 ROC       0.0652
     54 H5         -4.7802    9.3199    4.4784 H           1 ROC       0.0657
     55 H6         -5.3688    6.9682    4.5257 H           1 ROC       0.0653
     56 H7         -2.2549    2.0496    7.3908 H           1 ROC       0.1882
     57 H8         -3.9074    0.0936    6.1148 H           1 ROC       0.0826
     58 H9         -2.4371   -1.4933    7.2886 H           1 ROC       0.0551
     59 H10        -1.6897   -0.1821    8.2015 H           1 ROC       0.0551
     60 H11         0.7265   -0.8400    5.7131 H           1 ROC       0.1814
     61 H12         0.1359   -1.5581    7.1120 H           1 ROC       0.1814
     62 H13        -5.4462    2.5571    9.8374 H           1 ROC       0.0672
     63 H14        -6.1005    3.4514   11.5533 H           1 ROC       0.2101
     64 H15        -5.1904   -0.2795   10.8007 H           1 ROC       0.0606
     65 H16        -3.0525    0.8923    9.4114 H           1 ROC       0.1857
     66 H17        -3.2779   -0.2373   11.9999 H           1 ROC       0.0449
     67 H18        -4.0632    1.1385   12.6974 H           1 ROC       0.0449
     68 H19        -3.3346    3.4993   11.7789 H           1 ROC       0.0557
     69 H20        -1.1137   -0.0193   11.0348 H           1 ROC       0.0557
     70 H21        -1.4099    4.8248   11.1722 H           1 ROC       0.0599
     71 H22         0.7916    1.3215   10.4228 H           1 ROC       0.0599
     72 H23         0.6581    3.7441   10.4995 H           1 ROC       0.0559
     73 H24        -7.9698    3.1189    9.8532 H           1 ROC       0.2057
     74 H25        -7.6879    1.0411   11.1723 H           1 ROC       0.0841
     75 H26        -7.1209    0.3355    9.6954 H           1 ROC       0.0841
     76 H27        -9.8068    2.0301   10.6152 H           1 ROC       0.1100
     77 H28       -10.2236    3.9593    9.3736 H           1 ROC       0.0348
     78 H29       -11.4614    2.8399    8.8620 H           1 ROC       0.0348
     79 H30       -10.4544    4.2106    7.0397 H           1 ROC       0.0309
     80 H31       -11.5469    2.1422    6.3517 H           1 ROC       0.0268
     81 H32       -10.0838    1.2006    6.6237 H           1 ROC       0.0268
     82 H33       -10.4847    3.3596    4.5144 H           1 ROC       0.0265
     83 H34       -10.2618    1.6284    4.2483 H           1 ROC       0.0265
     84 H35        -8.1714    2.9593    3.8012 H           1 ROC       0.0265
     85 H36        -7.9389    1.7318    5.0446 H           1 ROC       0.0265
     86 H37        -8.4084    4.7284    5.4740 H           1 ROC       0.0270
     87 H38        -6.9002    3.8825    5.7493 H           1 ROC       0.0270
     88 H39        -8.2028    4.4349    7.8286 H           1 ROC       0.0355
     89 H40        -7.7531    1.4325    7.4562 H           1 ROC       0.0818
     90 H41        -6.5849    2.6374    7.9685 H           1 ROC       0.0818
     91 H42       -11.7650    0.8386   10.1293 H           1 ROC       0.1859
     92 H43       -14.0671   -1.6879    9.3824 H           1 ROC       0.0254
     93 H44       -13.7294   -0.1230    8.6293 H           1 ROC       0.0254
     94 H45       -13.7623   -0.2679   10.3904 H           1 ROC       0.0254
     95 H46       -12.1529   -2.9691   10.5956 H           1 ROC       0.0254
     96 H47       -11.8802   -1.5433   11.6102 H           1 ROC       0.0254
     97 H48       -10.5396   -2.2504   10.6971 H           1 ROC       0.0254
     98 H49       -12.2868   -2.6465    7.9372 H           1 ROC       0.0254
     99 H50       -10.5960   -2.2052    8.1104 H           1 ROC       0.0254
    100 H51       -11.7082   -1.1111    7.2777 H           1 ROC       0.0254
@<TRIPOS>BOND
     1     1     2   2
     2     1     4   1
     3    13     1  am
     4     4     3  ar
     5     3    12  ar
     6     4     5  ar
     7     5     6  ar
     8     6    11  ar
     9     7     8  ar
    10    11     7  ar
    11     9     8  ar
    12    10     9  ar
    13    12    10  ar
    14    12    11  ar
    15    14    13   1
    16    15    14   1
    17    14    17   1
    18    15    16   2
    19    24    15  am
    20    17    18   1
    21    18    19   2
    22    18    20  am
    23    21    22   1
    24    23    21   1
    25    21    33   1
    26    23    24   1
    27    23    25   1
    28    25    26   1
    29    26    27  ar
    30    26    28  ar
    31    27    29  ar
    32    28    30  ar
    33    29    31  ar
    34    30    31  ar
    35    33    32   1
    36    32    34   1
    37    32    44   1
    38    34    35   1
    39    34    37   1
    40    35    36   2
    41    35    45  am
    42    37    38   1
    43    38    39   1
    44    38    43   1
    45    39    40   1
    46    40    41   1
    47    41    42   1
    48    42    43   1
    49    43    44   1
    50    45    46   1
    51    46    47   1
    52    46    48   1
    53    46    49   1
    54     5    50   1
    55     6    51   1
    56     7    52   1
    57     8    53   1
    58     9    54   1
    59    10    55   1
    60    13    56   1
    61    14    57   1
    62    17    58   1
    63    17    59   1
    64    20    60   1
    65    20    61   1
    66    21    62   1
    67    22    63   1
    68    23    64   1
    69    24    65   1
    70    25    66   1
    71    25    67   1
    72    27    68   1
    73    28    69   1
    74    29    70   1
    75    30    71   1
    76    31    72   1
    77    32    73   1
    78    33    74   1
    79    33    75   1
    80    34    76   1
    81    37    77   1
    82    37    78   1
    83    38    79   1
    84    39    80   1
    85    39    81   1
    86    40    82   1
    87    40    83   1
    88    41    84   1
    89    41    85   1
    90    42    86   1
    91    42    87   1
    92    43    88   1
    93    44    89   1
    94    44    90   1
    95    45    91   1
    96    47    92   1
    97    47    93   1
    98    47    94   1
    99    48    95   1
   100    48    96   1
   101    48    97   1
   102    49    98   1
   103    49    99   1
   104    49   100   1
@<TRIPOS>SUBSTRUCTURE
     1  ROC      1

