@<TRIPOS>MOLECULE
3pww_ligand_025
   100   104
SMALL
GAST_HUCK
****
This file was generated by PARSER (from files_GN.cpp)

@<TRIPOS>ATOM
      1 C          -2.9712   -1.1209   10.3893 C.2         1 ROC       0.2293
      2 O          -1.8559   -0.9959   10.8923 O.2         1 ROC      -0.3762
      3 N1         -3.6079   -2.3589   12.3116 N.ar        1 ROC      -0.2737
      4 C2         -3.9538   -1.7822   11.1261 C.ar        1 ROC       0.1219
      5 C3         -5.3053   -1.9027   10.7110 C.ar        1 ROC      -0.0136
      6 C4         -6.2301   -2.5998   11.5061 C.ar        1 ROC      -0.0314
      7 C5         -6.7089   -3.8984   13.5583 C.ar        1 ROC      -0.0444
      8 C6         -6.2420   -4.4702   14.7580 C.ar        1 ROC      -0.0546
      9 C7         -4.8933   -4.3375   15.1289 C.ar        1 ROC      -0.0545
     10 C8         -4.0001   -3.6233   14.3109 C.ar        1 ROC      -0.0370
     11 C4A        -5.8192   -3.1872   12.7229 C.ar        1 ROC       0.0097
     12 C8A        -4.4641   -3.0494   13.1100 C.ar        1 ROC       0.0527
     13 N          -3.2009   -0.6318    9.1747 N.am        1 ROC      -0.2600
     14 CA         -2.2721    0.0467    8.3114 C.3         1 ROC       0.1473
     15 C1         -2.6583    1.4491    8.3081 C.2         1 ROC       0.2045
     16 O1         -3.1863    1.9535    7.3201 O.2         1 ROC      -0.3943
     17 CB         -2.2810   -0.6599    6.9179 C.3         1 ROC       0.0773
     18 CG         -1.1146   -0.3524    6.1133 C.2         1 ROC       0.1780
     19 OD1        -1.1817    0.4094    5.1570 O.2         1 ROC      -0.3970
     20 ND2         0.0430   -0.9063    6.3929 N.am        1 ROC      -0.3007
     21 C9         -1.8346    4.5111    9.5804 C.3         1 ROC       0.1194
     22 O2         -1.8538    5.5420   10.5722 O.3         1 ROC      -0.3840
     23 CA1        -3.0157    3.4701    9.6928 C.3         1 ROC       0.0823
     24 N2         -2.5218    2.1408    9.4401 N.am        1 ROC      -0.2772
     25 CB1        -3.7592    3.4829   11.0698 C.3         1 ROC       0.0066
     26 CG1        -4.9006    2.5282   11.2052 C.ar        1 ROC      -0.0408
     27 CD1        -5.1875    1.9109   12.4499 C.ar        1 ROC      -0.0603
     28 CD2        -5.7872    2.2898   10.1271 C.ar        1 ROC      -0.0603
     29 CE1        -6.3335    1.1123   12.6156 C.ar        1 ROC      -0.0686
     30 CE2        -6.9219    1.4705   10.2847 C.ar        1 ROC      -0.0686
     31 CZ         -7.2014    0.8884   11.5323 C.ar        1 ROC      -0.0687
     32 N11        -2.6166    6.3858    7.9569 N.4         1 ROC       0.2562
     33 CM         -1.7146    5.1857    8.1745 C.3         1 ROC      -0.0008
     34 C21        -4.0096    6.1066    7.4220 C.3         1 ROC       0.0688
     35 CC         -4.1149    5.5265    6.0706 C.2         1 ROC       0.2251
     36 O3         -3.1003    5.1799    5.4710 O.2         1 ROC      -0.3909
     37 C31        -4.8689    7.4033    7.6219 C.3         1 ROC       0.0113
     38 C3A        -4.2601    8.6990    7.0153 C.3         1 ROC      -0.0261
     39 C41        -4.4525    8.7987    5.4700 C.3         1 ROC      -0.0494
     40 C51        -3.8561   10.1147    4.9200 C.3         1 ROC      -0.0528
     41 C61        -2.3478   10.2086    5.2584 C.3         1 ROC      -0.0526
     42 C71        -2.1129   10.1138    6.7890 C.3         1 ROC      -0.0451
     43 C7A        -2.7652    8.8579    7.4489 C.3         1 ROC       0.0024
     44 C81        -1.9525    7.5428    7.2576 C.3         1 ROC      -0.0266
     45 N3         -5.3128    5.2695    5.5444 N.am        1 ROC      -0.2771
     46 CD         -5.7163    4.6613    4.2941 C.3         1 ROC       0.0448
     47 C11        -7.0162    5.4026    3.8520 C.3         1 ROC      -0.0396
     48 C22        -6.0416    3.1666    4.6045 C.3         1 ROC      -0.0396
     49 C32        -4.7027    4.7159    3.1040 C.3         1 ROC      -0.0396
     50 H1         -5.6366   -1.4810    9.8400 H           1 ROC       0.0729
     51 H2         -7.2002   -2.6729   11.1955 H           1 ROC       0.0774
     52 H3         -7.6908   -4.0093   13.2988 H           1 ROC       0.0657
     53 H4         -6.8896   -4.9923   15.3564 H           1 ROC       0.0652
     54 H5         -4.5493   -4.7631   15.9927 H           1 ROC       0.0657
     55 H6         -3.0189   -3.5329   14.5870 H           1 ROC       0.0653
     56 H7         -4.0951   -0.7366    8.8150 H           1 ROC       0.1882
     57 H8         -1.2482   -0.0225    8.7059 H           1 ROC       0.0826
     58 H9         -3.1937   -0.3982    6.3739 H           1 ROC       0.0551
     59 H10        -2.3087   -1.7420    7.0652 H           1 ROC       0.0551
     60 H11         0.8244   -0.7119    5.8532 H           1 ROC       0.1814
     61 H12         0.1087   -1.5364    7.1320 H           1 ROC       0.1814
     62 H13        -0.8927    3.9818    9.7592 H           1 ROC       0.0672
     63 H14        -1.2758    5.2139   11.2922 H           1 ROC       0.2101
     64 H15        -3.7438    3.6991    8.9412 H           1 ROC       0.0606
     65 H16        -2.0680    1.6906   10.1735 H           1 ROC       0.1857
     66 H17        -4.1629    4.4877   11.2278 H           1 ROC       0.0449
     67 H18        -3.0232    3.3073   11.8641 H           1 ROC       0.0449
     68 H19        -4.5760    2.0658   13.2547 H           1 ROC       0.0557
     69 H20        -5.6330    2.7237    9.2159 H           1 ROC       0.0557
     70 H21        -6.5519    0.7012   13.5251 H           1 ROC       0.0599
     71 H22        -7.5541    1.3124    9.4951 H           1 ROC       0.0599
     72 H23        -8.0369    0.3088   11.6569 H           1 ROC       0.0559
     73 H24        -2.7780    6.7408    8.9019 H           1 ROC       0.2057
     74 H25        -1.8524    4.4199    7.4106 H           1 ROC       0.0841
     75 H26        -0.6668    5.4853    8.0844 H           1 ROC       0.0841
     76 H27        -4.4858    5.4180    8.0982 H           1 ROC       0.1100
     77 H28        -4.9575    7.5653    8.7016 H           1 ROC       0.0348
     78 H29        -5.8876    7.2600    7.2551 H           1 ROC       0.0348
     79 H30        -4.8172    9.5361    7.4522 H           1 ROC       0.0309
     80 H31        -5.5186    8.7628    5.2260 H           1 ROC       0.0268
     81 H32        -3.9626    7.9644    4.9626 H           1 ROC       0.0268
     82 H33        -4.3819   10.9709    5.3520 H           1 ROC       0.0265
     83 H34        -3.9934   10.1560    3.8388 H           1 ROC       0.0265
     84 H35        -1.9607   11.1629    4.8937 H           1 ROC       0.0265
     85 H36        -1.8040    9.4122    4.7433 H           1 ROC       0.0265
     86 H37        -2.5367   11.0099    7.2494 H           1 ROC       0.0270
     87 H38        -1.0382   10.1344    6.9875 H           1 ROC       0.0270
     88 H39        -2.7622    9.0505    8.5271 H           1 ROC       0.0355
     89 H40        -1.8115    7.3246    6.1987 H           1 ROC       0.0818
     90 H41        -0.9613    7.7138    7.6889 H           1 ROC       0.0818
     91 H42        -6.0552    5.5167    6.1196 H           1 ROC       0.1859
     92 H43        -7.4454    4.9405    2.9585 H           1 ROC       0.0254
     93 H44        -6.7964    6.4498    3.6244 H           1 ROC       0.0254
     94 H45        -7.7711    5.3733    4.6430 H           1 ROC       0.0254
     95 H46        -6.4486    2.6649    3.7221 H           1 ROC       0.0254
     96 H47        -6.7737    3.0874    5.4127 H           1 ROC       0.0254
     97 H48        -5.1337    2.6381    4.9092 H           1 ROC       0.0254
     98 H49        -5.1584    4.3317    2.1888 H           1 ROC       0.0254
     99 H50        -3.8224    4.1064    3.3096 H           1 ROC       0.0254
    100 H51        -4.3803    5.7418    2.9160 H           1 ROC       0.0254
@<TRIPOS>BOND
     1     1     2   2
     2     1     4   1
     3    13     1  am
     4     4     3  ar
     5     3    12  ar
     6     4     5  ar
     7     5     6  ar
     8     6    11  ar
     9     7     8  ar
    10    11     7  ar
    11     9     8  ar
    12    10     9  ar
    13    12    10  ar
    14    12    11  ar
    15    14    13   1
    16    15    14   1
    17    14    17   1
    18    15    16   2
    19    24    15  am
    20    17    18   1
    21    18    19   2
    22    18    20  am
    23    21    22   1
    24    23    21   1
    25    21    33   1
    26    23    24   1
    27    23    25   1
    28    25    26   1
    29    26    27  ar
    30    26    28  ar
    31    27    29  ar
    32    28    30  ar
    33    29    31  ar
    34    30    31  ar
    35    33    32   1
    36    32    34   1
    37    32    44   1
    38    34    35   1
    39    34    37   1
    40    35    36   2
    41    35    45  am
    42    37    38   1
    43    38    39   1
    44    38    43   1
    45    39    40   1
    46    40    41   1
    47    41    42   1
    48    42    43   1
    49    43    44   1
    50    45    46   1
    51    46    47   1
    52    46    48   1
    53    46    49   1
    54     5    50   1
    55     6    51   1
    56     7    52   1
    57     8    53   1
    58     9    54   1
    59    10    55   1
    60    13    56   1
    61    14    57   1
    62    17    58   1
    63    17    59   1
    64    20    60   1
    65    20    61   1
    66    21    62   1
    67    22    63   1
    68    23    64   1
    69    24    65   1
    70    25    66   1
    71    25    67   1
    72    27    68   1
    73    28    69   1
    74    29    70   1
    75    30    71   1
    76    31    72   1
    77    32    73   1
    78    33    74   1
    79    33    75   1
    80    34    76   1
    81    37    77   1
    82    37    78   1
    83    38    79   1
    84    39    80   1
    85    39    81   1
    86    40    82   1
    87    40    83   1
    88    41    84   1
    89    41    85   1
    90    42    86   1
    91    42    87   1
    92    43    88   1
    93    44    89   1
    94    44    90   1
    95    45    91   1
    96    47    92   1
    97    47    93   1
    98    47    94   1
    99    48    95   1
   100    48    96   1
   101    48    97   1
   102    49    98   1
   103    49    99   1
   104    49   100   1
@<TRIPOS>SUBSTRUCTURE
     1  ROC      1

