@<TRIPOS>MOLECULE
3pww_ligand_058
   100   104
SMALL
GAST_HUCK
****
This file was generated by PARSER (from files_GN.cpp)

@<TRIPOS>ATOM
      1 C          -5.6189   -0.8343    8.1104 C.2         1 ROC       0.2293
      2 O          -5.6512    0.3232    8.5226 O.2         1 ROC      -0.3762
      3 N1         -7.7563   -1.3608    8.9632 N.ar        1 ROC      -0.2737
      4 C2         -6.7830   -1.5638    8.0360 C.ar        1 ROC       0.1219
      5 C3         -6.9948   -2.5696    7.0560 C.ar        1 ROC      -0.0136
      6 C4         -8.1836   -3.3204    7.0664 C.ar        1 ROC      -0.0314
      7 C5        -10.3383   -3.8549    8.1539 C.ar        1 ROC      -0.0444
      8 C6        -11.2642   -3.6119    9.1887 C.ar        1 ROC      -0.0546
      9 C7        -11.0116   -2.5994   10.1338 C.ar        1 ROC      -0.0545
     10 C8         -9.8379   -1.8284   10.0497 C.ar        1 ROC      -0.0370
     11 C4A        -9.1527   -3.0982    8.0677 C.ar        1 ROC       0.0097
     12 C8A        -8.9064   -2.0788    9.0241 C.ar        1 ROC       0.0527
     13 N          -4.4515   -1.4306    7.8630 N.am        1 ROC      -0.2600
     14 CA         -3.1319   -0.8562    7.8705 C.3         1 ROC       0.1473
     15 C1         -2.8779   -0.0464    9.0681 C.2         1 ROC       0.2045
     16 O1         -3.2497   -0.4721   10.1558 O.2         1 ROC      -0.3943
     17 CB         -2.8938   -0.1845    6.4720 C.3         1 ROC       0.0773
     18 CG         -1.5308   -0.0576    5.9884 C.2         1 ROC       0.1780
     19 OD1        -1.3064    0.6722    5.0297 O.2         1 ROC      -0.3970
     20 ND2        -0.5042   -0.7334    6.4679 N.am        1 ROC      -0.3007
     21 C9         -2.8320    3.4203    9.6376 C.3         1 ROC       0.1194
     22 O2         -4.1344    3.3095   10.2369 O.3         1 ROC      -0.3840
     23 CA1        -2.0078    2.1273    9.9831 C.3         1 ROC       0.0823
     24 N2         -2.2954    1.1419    8.9775 N.am        1 ROC      -0.2772
     25 CB1        -0.4364    2.2245   10.0955 C.3         1 ROC       0.0066
     26 CG1         0.2265    3.5512   10.2476 C.ar        1 ROC      -0.0408
     27 CD1        -0.2869    4.5193   11.1430 C.ar        1 ROC      -0.0603
     28 CD2         1.4337    3.8463    9.5625 C.ar        1 ROC      -0.0603
     29 CE1         0.3553    5.7588   11.3149 C.ar        1 ROC      -0.0686
     30 CE2         2.0850    5.0752    9.7461 C.ar        1 ROC      -0.0686
     31 CZ          1.5404    6.0432   10.6140 C.ar        1 ROC      -0.0687
     32 N11        -3.6885    5.0960    7.9417 N.4         1 ROC       0.2562
     33 CM         -3.0534    3.7402    8.1286 C.3         1 ROC      -0.0008
     34 C21        -4.9232    5.1624    7.0687 C.3         1 ROC       0.0688
     35 CC         -4.8053    4.7174    5.6828 C.2         1 ROC       0.2251
     36 O3         -3.7501    4.2346    5.2737 O.2         1 ROC      -0.3909
     37 C31        -5.5723    6.5765    7.2346 C.3         1 ROC       0.0113
     38 C3A        -4.5936    7.7701    7.0160 C.3         1 ROC      -0.0261
     39 C41        -4.2794    8.0469    5.5112 C.3         1 ROC      -0.0494
     40 C51        -3.3058    9.2422    5.3492 C.3         1 ROC      -0.0528
     41 C61        -2.0018    9.0283    6.1604 C.3         1 ROC      -0.0526
     42 C71        -2.2916    8.7408    7.6581 C.3         1 ROC      -0.0451
     43 C7A        -3.3028    7.5752    7.8759 C.3         1 ROC       0.0024
     44 C81        -2.6814    6.1644    7.6518 C.3         1 ROC      -0.0266
     45 N3         -5.8865    4.7467    4.8982 N.am        1 ROC      -0.2771
     46 CD         -6.1145    4.2296    3.5699 C.3         1 ROC       0.0448
     47 C11        -4.8710    4.3143    2.6365 C.3         1 ROC      -0.0396
     48 C22        -7.2553    5.0932    2.9431 C.3         1 ROC      -0.0396
     49 C32        -6.5943    2.7566    3.6960 C.3         1 ROC      -0.0396
     50 H1         -6.2990   -2.7487    6.3271 H           1 ROC       0.0729
     51 H2         -8.3317   -4.0393    6.3547 H           1 ROC       0.0774
     52 H3        -10.5385   -4.5951    7.4720 H           1 ROC       0.0657
     53 H4        -12.1179   -4.1646    9.2511 H           1 ROC       0.0652
     54 H5        -11.6798   -2.4275   10.8862 H           1 ROC       0.0657
     55 H6         -9.6600   -1.0968   10.7396 H           1 ROC       0.0653
     56 H7         -4.4942   -2.3788    7.6413 H           1 ROC       0.1882
     57 H8         -2.4623   -1.7202    7.9258 H           1 ROC       0.0826
     58 H9         -3.3458    0.8140    6.4887 H           1 ROC       0.0551
     59 H10        -3.4313   -0.7605    5.7121 H           1 ROC       0.0551
     60 H11         0.3717   -0.6350    6.0599 H           1 ROC       0.1814
     61 H12        -0.6196   -1.3428    7.2131 H           1 ROC       0.1814
     62 H13        -2.3729    4.2919   10.0965 H           1 ROC       0.0672
     63 H14        -3.9799    3.4550   11.2058 H           1 ROC       0.2101
     64 H15        -2.3557    1.7795   10.9632 H           1 ROC       0.0606
     65 H16        -1.9550    1.3829    8.1023 H           1 ROC       0.1857
     66 H17         0.0249    1.7004    9.2512 H           1 ROC       0.0449
     67 H18        -0.1314    1.6409   10.9766 H           1 ROC       0.0449
     68 H19        -1.1339    4.3181   11.6699 H           1 ROC       0.0557
     69 H20         1.8489    3.1705    8.9223 H           1 ROC       0.0557
     70 H21        -0.0381    6.4644   11.9460 H           1 ROC       0.0599
     71 H22         2.9628    5.2702    9.2671 H           1 ROC       0.0599
     72 H23         2.0104    6.9444   10.7372 H           1 ROC       0.0559
     73 H24        -4.0547    5.3400    8.8701 H           1 ROC       0.2057
     74 H25        -3.7164    2.9637    7.7291 H           1 ROC       0.0841
     75 H26        -2.1062    3.6697    7.5853 H           1 ROC       0.0841
     76 H27        -5.6342    4.4626    7.5144 H           1 ROC       0.1100
     77 H28        -5.9339    6.6404    8.2625 H           1 ROC       0.0348
     78 H29        -6.4478    6.6954    6.5932 H           1 ROC       0.0348
     79 H30        -5.1095    8.6625    7.3923 H           1 ROC       0.0309
     80 H31        -5.2106    8.2722    4.9801 H           1 ROC       0.0268
     81 H32        -3.8340    7.1696    5.0378 H           1 ROC       0.0268
     82 H33        -3.7998   10.1566    5.6848 H           1 ROC       0.0265
     83 H34        -3.0562    9.3638    4.2924 H           1 ROC       0.0265
     84 H35        -1.3898    9.9289    6.0838 H           1 ROC       0.0265
     85 H36        -1.4340    8.2000    5.7273 H           1 ROC       0.0265
     86 H37        -2.7032    9.6477    8.1066 H           1 ROC       0.0270
     87 H38        -1.3543    8.5176    8.1687 H           1 ROC       0.0270
     88 H39        -3.6016    7.6184    8.9314 H           1 ROC       0.0355
     89 H40        -2.3007    6.0669    6.6343 H           1 ROC       0.0818
     90 H41        -1.8330    6.0608    8.3363 H           1 ROC       0.0818
     91 H42        -6.6774    5.1195    5.3188 H           1 ROC       0.1859
     92 H43        -5.1163    3.9558    1.6362 H           1 ROC       0.0254
     93 H44        -4.0698    3.6844    3.0260 H           1 ROC       0.0254
     94 H45        -4.4999    5.3382    2.5647 H           1 ROC       0.0254
     95 H46        -7.5199    4.7358    1.9461 H           1 ROC       0.0254
     96 H47        -6.9473    6.1381    2.8592 H           1 ROC       0.0254
     97 H48        -8.1505    5.0539    3.5646 H           1 ROC       0.0254
     98 H49        -6.7971    2.3209    2.7161 H           1 ROC       0.0254
     99 H50        -7.5068    2.6975    4.2894 H           1 ROC       0.0254
    100 H51        -5.8333    2.1520    4.1905 H           1 ROC       0.0254
@<TRIPOS>BOND
     1     1     2   2
     2     1     4   1
     3    13     1  am
     4     4     3  ar
     5     3    12  ar
     6     4     5  ar
     7     5     6  ar
     8     6    11  ar
     9     7     8  ar
    10    11     7  ar
    11     9     8  ar
    12    10     9  ar
    13    12    10  ar
    14    12    11  ar
    15    14    13   1
    16    15    14   1
    17    14    17   1
    18    15    16   2
    19    24    15  am
    20    17    18   1
    21    18    19   2
    22    18    20  am
    23    21    22   1
    24    23    21   1
    25    21    33   1
    26    23    24   1
    27    23    25   1
    28    25    26   1
    29    26    27  ar
    30    26    28  ar
    31    27    29  ar
    32    28    30  ar
    33    29    31  ar
    34    30    31  ar
    35    33    32   1
    36    32    34   1
    37    32    44   1
    38    34    35   1
    39    34    37   1
    40    35    36   2
    41    35    45  am
    42    37    38   1
    43    38    39   1
    44    38    43   1
    45    39    40   1
    46    40    41   1
    47    41    42   1
    48    42    43   1
    49    43    44   1
    50    45    46   1
    51    46    47   1
    52    46    48   1
    53    46    49   1
    54     5    50   1
    55     6    51   1
    56     7    52   1
    57     8    53   1
    58     9    54   1
    59    10    55   1
    60    13    56   1
    61    14    57   1
    62    17    58   1
    63    17    59   1
    64    20    60   1
    65    20    61   1
    66    21    62   1
    67    22    63   1
    68    23    64   1
    69    24    65   1
    70    25    66   1
    71    25    67   1
    72    27    68   1
    73    28    69   1
    74    29    70   1
    75    30    71   1
    76    31    72   1
    77    32    73   1
    78    33    74   1
    79    33    75   1
    80    34    76   1
    81    37    77   1
    82    37    78   1
    83    38    79   1
    84    39    80   1
    85    39    81   1
    86    40    82   1
    87    40    83   1
    88    41    84   1
    89    41    85   1
    90    42    86   1
    91    42    87   1
    92    43    88   1
    93    44    89   1
    94    44    90   1
    95    45    91   1
    96    47    92   1
    97    47    93   1
    98    47    94   1
    99    48    95   1
   100    48    96   1
   101    48    97   1
   102    49    98   1
   103    49    99   1
   104    49   100   1
@<TRIPOS>SUBSTRUCTURE
     1  ROC      1

