@<TRIPOS>MOLECULE
3pww_ligand_011
   100   104
SMALL
GAST_HUCK
****
This file was generated by PARSER (from files_GN.cpp)

@<TRIPOS>ATOM
      1 C          -4.9832    6.3213    7.6593 C.2         1 ROC       0.2293
      2 O          -5.8722    5.6191    7.1946 O.2         1 ROC      -0.3762
      3 N1         -5.6134    8.0761    6.1894 N.ar        1 ROC      -0.2737
      4 C2         -4.8765    7.6539    7.2549 C.ar        1 ROC       0.1219
      5 C3         -4.0114    8.5960    7.8651 C.ar        1 ROC      -0.0136
      6 C4         -3.9498    9.9170    7.3886 C.ar        1 ROC      -0.0314
      7 C5         -4.7065   11.6196    5.7641 C.ar        1 ROC      -0.0444
      8 C6         -5.5010   11.9547    4.6504 C.ar        1 ROC      -0.0546
      9 C7         -6.3209   10.9802    4.0490 C.ar        1 ROC      -0.0545
     10 C8         -6.3599    9.6732    4.5640 C.ar        1 ROC      -0.0370
     11 C4A        -4.7370   10.3096    6.2862 C.ar        1 ROC       0.0097
     12 C8A        -5.5774    9.3352    5.6847 C.ar        1 ROC       0.0527
     13 N          -4.0881    5.7873    8.4796 N.am        1 ROC      -0.2600
     14 CA         -3.9482    4.4178    8.8993 C.3         1 ROC       0.1473
     15 C1         -2.8674    4.4136    9.8829 C.2         1 ROC       0.2045
     16 O1         -3.0963    5.0201   10.9242 O.2         1 ROC      -0.3943
     17 CB         -3.8220    3.3859    7.7212 C.3         1 ROC       0.0773
     18 CG         -3.2526    3.8456    6.4646 C.2         1 ROC       0.1780
     19 OD1        -3.6693    3.3880    5.4090 O.2         1 ROC      -0.3970
     20 ND2        -2.3535    4.7974    6.3737 N.am        1 ROC      -0.3007
     21 C9          0.6227    4.6332   10.2871 C.3         1 ROC       0.1194
     22 O2          1.4065    4.7675   11.4759 O.3         1 ROC      -0.3840
     23 CA1        -0.6220    3.7567   10.6778 C.3         1 ROC       0.0823
     24 N2         -1.6744    3.8479    9.6952 N.am        1 ROC      -0.2772
     25 CB1        -0.2514    2.2532   10.8897 C.3         1 ROC       0.0066
     26 CG1        -1.3359    1.2734   11.2036 C.ar        1 ROC      -0.0408
     27 CD1        -1.1014   -0.1053   10.9676 C.ar        1 ROC      -0.0603
     28 CD2        -2.5812    1.6472   11.7706 C.ar        1 ROC      -0.0603
     29 CE1        -2.1024   -1.0621   11.2069 C.ar        1 ROC      -0.0686
     30 CE2        -3.5934    0.6909   11.9880 C.ar        1 ROC      -0.0686
     31 CZ         -3.3594   -0.6627   11.6899 C.ar        1 ROC      -0.0687
     32 N11         1.3523    7.0378    9.3837 N.4         1 ROC       0.2562
     33 CM          0.2566    6.0481    9.7340 C.3         1 ROC      -0.0008
     34 C21         2.4571    7.2412   10.3961 C.3         1 ROC       0.0688
     35 CC          2.0574    7.6228   11.7567 C.2         1 ROC       0.2251
     36 O3          0.8955    7.9179   11.9843 O.2         1 ROC      -0.3909
     37 C31         3.5648    8.1679    9.7982 C.3         1 ROC       0.0113
     38 C3A         3.0503    9.5231    9.2389 C.3         1 ROC      -0.0261
     39 C41         2.7276   10.5710   10.3492 C.3         1 ROC      -0.0494
     40 C51         2.2267   11.9054    9.7488 C.3         1 ROC      -0.0528
     41 C61         0.9882   11.6741    8.8472 C.3         1 ROC      -0.0526
     42 C71         1.2780   10.6334    7.7312 C.3         1 ROC      -0.0451
     43 C7A         1.8584    9.2821    8.2575 C.3         1 ROC       0.0024
     44 C81         0.7799    8.3339    8.8707 C.3         1 ROC      -0.0266
     45 N3          2.9698    7.6404   12.7219 N.am        1 ROC      -0.2771
     46 CD          2.8637    7.9561   14.1302 C.3         1 ROC       0.0448
     47 C11         3.4489    6.7248   14.8832 C.3         1 ROC      -0.0396
     48 C22         1.4386    8.2499   14.7089 C.3         1 ROC      -0.0396
     49 C32         3.7685    9.2007   14.3606 C.3         1 ROC      -0.0396
     50 H1         -3.4237    8.3428    8.6610 H           1 ROC       0.0729
     51 H2         -3.3195   10.5829    7.8419 H           1 ROC       0.0774
     52 H3         -4.1158   12.3387    6.1902 H           1 ROC       0.0657
     53 H4         -5.4900   12.9083    4.2841 H           1 ROC       0.0652
     54 H5         -6.8950   11.2260    3.2397 H           1 ROC       0.0657
     55 H6         -6.9541    8.9685    4.1206 H           1 ROC       0.0653
     56 H7         -3.4170    6.3916    8.8290 H           1 ROC       0.1882
     57 H8         -4.8605    4.1467    9.4443 H           1 ROC       0.0826
     58 H9         -4.8347    3.0211    7.5083 H           1 ROC       0.0551
     59 H10        -3.2601    2.5040    8.0467 H           1 ROC       0.0551
     60 H11        -2.1005    5.1297    5.5007 H           1 ROC       0.1814
     61 H12        -1.9806    5.2090    7.1707 H           1 ROC       0.1814
     62 H13         1.2211    4.1163    9.5300 H           1 ROC       0.0672
     63 H14         1.9160    3.9363   11.5612 H           1 ROC       0.2101
     64 H15        -0.9620    4.1342   11.6483 H           1 ROC       0.0606
     65 H16        -1.4917    3.4391    8.8335 H           1 ROC       0.1857
     66 H17         0.4746    2.1753   11.7024 H           1 ROC       0.0449
     67 H18         0.2525    1.9242    9.9750 H           1 ROC       0.0449
     68 H19        -0.1959   -0.4213   10.6093 H           1 ROC       0.0557
     69 H20        -2.7742    2.6185   12.0210 H           1 ROC       0.0557
     70 H21        -1.9218   -2.0516   11.0209 H           1 ROC       0.0599
     71 H22        -4.5020    0.9847   12.3585 H           1 ROC       0.0599
     72 H23        -4.1003   -1.3548   11.8281 H           1 ROC       0.0559
     73 H24         1.8243    6.6225    8.5787 H           1 ROC       0.2057
     74 H25        -0.4438    6.5089   10.4320 H           1 ROC       0.0841
     75 H26        -0.2965    5.8697    8.8096 H           1 ROC       0.0841
     76 H27         2.9613    6.2763   10.4831 H           1 ROC       0.1100
     77 H28         4.0270    7.6270    8.9645 H           1 ROC       0.0348
     78 H29         4.3598    8.3444   10.5285 H           1 ROC       0.0348
     79 H30         3.8731    9.9498    8.6528 H           1 ROC       0.0309
     80 H31         3.6237   10.7624   10.9449 H           1 ROC       0.0268
     81 H32         1.9571   10.1981   11.0217 H           1 ROC       0.0268
     82 H33         3.0267   12.3684    9.1638 H           1 ROC       0.0265
     83 H34         1.9648   12.5901   10.5599 H           1 ROC       0.0265
     84 H35         0.6973   12.6238    8.3900 H           1 ROC       0.0265
     85 H36         0.1504   11.3313    9.4610 H           1 ROC       0.0265
     86 H37         1.9970   11.0775    7.0350 H           1 ROC       0.0270
     87 H38         0.3576   10.4517    7.1703 H           1 ROC       0.0270
     88 H39         2.2593    8.7570    7.3823 H           1 ROC       0.0355
     89 H40         0.2406    8.8567    9.6623 H           1 ROC       0.0818
     90 H41         0.0591    8.1199    8.0770 H           1 ROC       0.0818
     91 H42         3.8679    7.4097   12.4308 H           1 ROC       0.1859
     92 H43         3.4835    6.9043   15.9599 H           1 ROC       0.0254
     93 H44         4.4645    6.5079   14.5438 H           1 ROC       0.0254
     94 H45         2.8319    5.8408   14.7029 H           1 ROC       0.0254
     95 H46         1.4851    8.4224   15.7862 H           1 ROC       0.0254
     96 H47         0.7671    7.4055   14.5334 H           1 ROC       0.0254
     97 H48         1.0032    9.1411   14.2520 H           1 ROC       0.0254
     98 H49         3.8058    9.4604   15.4199 H           1 ROC       0.0254
     99 H50         3.3789   10.0585   13.8088 H           1 ROC       0.0254
    100 H51         4.7884    9.0115   14.0185 H           1 ROC       0.0254
@<TRIPOS>BOND
     1     1     2   2
     2     1     4   1
     3    13     1  am
     4     4     3  ar
     5     3    12  ar
     6     4     5  ar
     7     5     6  ar
     8     6    11  ar
     9     7     8  ar
    10    11     7  ar
    11     9     8  ar
    12    10     9  ar
    13    12    10  ar
    14    12    11  ar
    15    14    13   1
    16    15    14   1
    17    14    17   1
    18    15    16   2
    19    24    15  am
    20    17    18   1
    21    18    19   2
    22    18    20  am
    23    21    22   1
    24    23    21   1
    25    21    33   1
    26    23    24   1
    27    23    25   1
    28    25    26   1
    29    26    27  ar
    30    26    28  ar
    31    27    29  ar
    32    28    30  ar
    33    29    31  ar
    34    30    31  ar
    35    33    32   1
    36    32    34   1
    37    32    44   1
    38    34    35   1
    39    34    37   1
    40    35    36   2
    41    35    45  am
    42    37    38   1
    43    38    39   1
    44    38    43   1
    45    39    40   1
    46    40    41   1
    47    41    42   1
    48    42    43   1
    49    43    44   1
    50    45    46   1
    51    46    47   1
    52    46    48   1
    53    46    49   1
    54     5    50   1
    55     6    51   1
    56     7    52   1
    57     8    53   1
    58     9    54   1
    59    10    55   1
    60    13    56   1
    61    14    57   1
    62    17    58   1
    63    17    59   1
    64    20    60   1
    65    20    61   1
    66    21    62   1
    67    22    63   1
    68    23    64   1
    69    24    65   1
    70    25    66   1
    71    25    67   1
    72    27    68   1
    73    28    69   1
    74    29    70   1
    75    30    71   1
    76    31    72   1
    77    32    73   1
    78    33    74   1
    79    33    75   1
    80    34    76   1
    81    37    77   1
    82    37    78   1
    83    38    79   1
    84    39    80   1
    85    39    81   1
    86    40    82   1
    87    40    83   1
    88    41    84   1
    89    41    85   1
    90    42    86   1
    91    42    87   1
    92    43    88   1
    93    44    89   1
    94    44    90   1
    95    45    91   1
    96    47    92   1
    97    47    93   1
    98    47    94   1
    99    48    95   1
   100    48    96   1
   101    48    97   1
   102    49    98   1
   103    49    99   1
   104    49   100   1
@<TRIPOS>SUBSTRUCTURE
     1  ROC      1

