@<TRIPOS>MOLECULE
3pww_ligand_047
   100   104
SMALL
GAST_HUCK
****
This file was generated by PARSER (from files_GN.cpp)

@<TRIPOS>ATOM
      1 C          -3.0161    2.5839    7.4271 C.2         1 ROC       0.2293
      2 O          -2.5110    2.3935    8.5258 O.2         1 ROC      -0.3762
      3 N1         -2.4740    4.8723    7.6772 N.ar        1 ROC      -0.2737
      4 C2         -3.0129    3.8770    6.9154 C.ar        1 ROC       0.1219
      5 C3         -3.5264    4.2304    5.6458 C.ar        1 ROC      -0.0136
      6 C4         -3.4396    5.5607    5.1947 C.ar        1 ROC      -0.0314
      7 C5         -2.7349    7.8956    5.6032 C.ar        1 ROC      -0.0444
      8 C6         -2.1582    8.8478    6.4676 C.ar        1 ROC      -0.0546
      9 C7         -1.7067    8.4640    7.7444 C.ar        1 ROC      -0.0545
     10 C8         -1.8152    7.1247    8.1590 C.ar        1 ROC      -0.0370
     11 C4A        -2.8559    6.5507    6.0118 C.ar        1 ROC       0.0097
     12 C8A        -2.3814    6.1687    7.2936 C.ar        1 ROC       0.0527
     13 N          -3.5363    1.5493    6.7685 N.am        1 ROC      -0.2600
     14 CA         -3.5894    0.1780    7.2023 C.3         1 ROC       0.1473
     15 C1         -4.4419   -0.0288    8.3818 C.2         1 ROC       0.2045
     16 O1         -4.6809   -1.1824    8.7142 O.2         1 ROC      -0.3943
     17 CB         -2.1736   -0.4667    7.3834 C.3         1 ROC       0.0773
     18 CG         -1.1954   -0.2719    6.3216 C.2         1 ROC       0.1780
     19 OD1        -1.3949    0.4468    5.3535 O.2         1 ROC      -0.3970
     20 ND2        -0.0288   -0.8713    6.3983 N.am        1 ROC      -0.3007
     21 C9         -7.4024    0.8330    9.6507 C.3         1 ROC       0.1194
     22 O2         -7.7892    2.0358    8.9870 O.3         1 ROC      -0.3840
     23 CA1        -5.9239    0.8814   10.1552 C.3         1 ROC       0.0823
     24 N2         -5.0535    0.9762    9.0071 N.am        1 ROC      -0.2772
     25 CB1        -5.5926    2.0074   11.1831 C.3         1 ROC       0.0066
     26 CG1        -4.1443    2.1165   11.5400 C.ar        1 ROC      -0.0408
     27 CD1        -3.4416    0.9917   12.0320 C.ar        1 ROC      -0.0603
     28 CD2        -3.4372    3.3347   11.3794 C.ar        1 ROC      -0.0603
     29 CE1        -2.0659    1.0673   12.3097 C.ar        1 ROC      -0.0686
     30 CE2        -2.0584    3.4092   11.6543 C.ar        1 ROC      -0.0686
     31 CZ         -1.3696    2.2710   12.1110 C.ar        1 ROC      -0.0687
     32 N11        -9.7043   -0.3361   10.3344 N.4         1 ROC       0.2562
     33 CM         -8.4639    0.4364   10.7218 C.3         1 ROC      -0.0008
     34 C21        -9.5233   -1.7069    9.7361 C.3         1 ROC       0.0688
     35 CC         -9.1283   -1.9059    8.3277 C.2         1 ROC       0.2251
     36 O3         -8.8687   -3.0516    7.9865 O.2         1 ROC      -0.3909
     37 C31       -10.8220   -2.5148   10.0814 C.3         1 ROC       0.0113
     38 C3A       -12.1479   -1.8225    9.6352 C.3         1 ROC      -0.0261
     39 C41       -12.4455   -1.9632    8.1096 C.3         1 ROC      -0.0494
     40 C51       -13.7721   -1.2738    7.7113 C.3         1 ROC      -0.0528
     41 C61       -13.7654    0.2186    8.1246 C.3         1 ROC      -0.0526
     42 C71       -13.4827    0.3891    9.6389 C.3         1 ROC      -0.0451
     43 C7A       -12.1889   -0.3331   10.1252 C.3         1 ROC       0.0024
     44 C81       -10.8707    0.4407    9.7996 C.3         1 ROC      -0.0266
     45 N3         -9.0384   -0.9203    7.4401 N.am        1 ROC      -0.2771
     46 CD         -8.5684   -0.9486    6.0694 C.3         1 ROC       0.0448
     47 C11        -9.3170   -1.9936    5.1898 C.3         1 ROC      -0.0396
     48 C22        -7.0328   -1.2108    6.0519 C.3         1 ROC      -0.0396
     49 C32        -8.8463    0.4755    5.4964 C.3         1 ROC      -0.0396
     50 H1         -3.9597    3.5347    5.0342 H           1 ROC       0.0729
     51 H2         -3.8092    5.7994    4.2720 H           1 ROC       0.0774
     52 H3         -3.0592    8.1908    4.6782 H           1 ROC       0.0657
     53 H4         -2.0647    9.8200    6.1652 H           1 ROC       0.0652
     54 H5         -1.2950    9.1586    8.3707 H           1 ROC       0.0657
     55 H6         -1.4827    6.8513    9.0868 H           1 ROC       0.0653
     56 H7         -3.9324    1.7257    5.9008 H           1 ROC       0.1882
     57 H8         -4.0697   -0.3656    6.3820 H           1 ROC       0.0826
     58 H9         -2.3154   -1.5460    7.4854 H           1 ROC       0.0551
     59 H10        -1.7302   -0.1121    8.3182 H           1 ROC       0.0551
     60 H11         0.6510   -0.7095    5.7221 H           1 ROC       0.1814
     61 H12         0.1558   -1.4707    7.1398 H           1 ROC       0.1814
     62 H13        -7.3959    0.0579    8.8984 H           1 ROC       0.0672
     63 H14        -7.6224    2.7687    9.6240 H           1 ROC       0.2101
     64 H15        -5.7453   -0.0673   10.6703 H           1 ROC       0.0606
     65 H16        -4.9204    1.8696    8.6538 H           1 ROC       0.1857
     66 H17        -6.1553    1.8214   12.1022 H           1 ROC       0.0449
     67 H18        -5.9414    2.9632   10.7864 H           1 ROC       0.0449
     68 H19        -3.9266    0.1036   12.1765 H           1 ROC       0.0557
     69 H20        -3.9152    4.1742   11.0505 H           1 ROC       0.0557
     70 H21        -1.5684    0.2417   12.6525 H           1 ROC       0.0599
     71 H22        -1.5571    4.2890   11.5170 H           1 ROC       0.0599
     72 H23        -0.3662    2.3227   12.3017 H           1 ROC       0.0559
     73 H24       -10.0471   -0.5833   11.2695 H           1 ROC       0.2057
     74 H25        -8.7648    1.3474   11.2417 H           1 ROC       0.0841
     75 H26        -7.9757   -0.1721   11.4914 H           1 ROC       0.0841
     76 H27        -8.7191   -2.1698   10.3213 H           1 ROC       0.1100
     77 H28       -10.8598   -2.6277   11.1699 H           1 ROC       0.0348
     78 H29       -10.7809   -3.5281    9.6761 H           1 ROC       0.0348
     79 H30       -12.9590   -2.3554   10.1506 H           1 ROC       0.0309
     80 H31       -12.4963   -3.0201    7.8390 H           1 ROC       0.0268
     81 H32       -11.6508   -1.5097    7.5230 H           1 ROC       0.0268
     82 H33       -14.6092   -1.7874    8.1923 H           1 ROC       0.0265
     83 H34       -13.9099   -1.3499    6.6295 H           1 ROC       0.0265
     84 H35       -14.7367    0.6575    7.8894 H           1 ROC       0.0265
     85 H36       -13.0075    0.7523    7.5457 H           1 ROC       0.0265
     86 H37       -14.3339   -0.0216   10.1900 H           1 ROC       0.0270
     87 H38       -13.4257    1.4534    9.8779 H           1 ROC       0.0270
     88 H39       -12.2514   -0.3623   11.2218 H           1 ROC       0.0355
     89 H40       -10.7944    0.6287    8.7307 H           1 ROC       0.0818
     90 H41       -10.9301    1.4145   10.2912 H           1 ROC       0.0818
     91 H42        -9.2328   -0.0373    7.7764 H           1 ROC       0.1859
     92 H43        -8.9956   -1.9095    4.1482 H           1 ROC       0.0254
     93 H44       -10.3950   -1.8234    5.2331 H           1 ROC       0.0254
     94 H45        -9.1081   -3.0114    5.5249 H           1 ROC       0.0254
     95 H46        -6.6330   -1.1616    5.0388 H           1 ROC       0.0254
     96 H47        -6.7886   -2.1921    6.4590 H           1 ROC       0.0254
     97 H48        -6.5236   -0.4623    6.6572 H           1 ROC       0.0254
     98 H49        -8.5067    0.5556    4.4625 H           1 ROC       0.0254
     99 H50        -8.3345    1.2427    6.0841 H           1 ROC       0.0254
    100 H51        -9.9172    0.6916    5.5220 H           1 ROC       0.0254
@<TRIPOS>BOND
     1     1     2   2
     2     1     4   1
     3    13     1  am
     4     4     3  ar
     5     3    12  ar
     6     4     5  ar
     7     5     6  ar
     8     6    11  ar
     9     7     8  ar
    10    11     7  ar
    11     9     8  ar
    12    10     9  ar
    13    12    10  ar
    14    12    11  ar
    15    14    13   1
    16    15    14   1
    17    14    17   1
    18    15    16   2
    19    24    15  am
    20    17    18   1
    21    18    19   2
    22    18    20  am
    23    21    22   1
    24    23    21   1
    25    21    33   1
    26    23    24   1
    27    23    25   1
    28    25    26   1
    29    26    27  ar
    30    26    28  ar
    31    27    29  ar
    32    28    30  ar
    33    29    31  ar
    34    30    31  ar
    35    33    32   1
    36    32    34   1
    37    32    44   1
    38    34    35   1
    39    34    37   1
    40    35    36   2
    41    35    45  am
    42    37    38   1
    43    38    39   1
    44    38    43   1
    45    39    40   1
    46    40    41   1
    47    41    42   1
    48    42    43   1
    49    43    44   1
    50    45    46   1
    51    46    47   1
    52    46    48   1
    53    46    49   1
    54     5    50   1
    55     6    51   1
    56     7    52   1
    57     8    53   1
    58     9    54   1
    59    10    55   1
    60    13    56   1
    61    14    57   1
    62    17    58   1
    63    17    59   1
    64    20    60   1
    65    20    61   1
    66    21    62   1
    67    22    63   1
    68    23    64   1
    69    24    65   1
    70    25    66   1
    71    25    67   1
    72    27    68   1
    73    28    69   1
    74    29    70   1
    75    30    71   1
    76    31    72   1
    77    32    73   1
    78    33    74   1
    79    33    75   1
    80    34    76   1
    81    37    77   1
    82    37    78   1
    83    38    79   1
    84    39    80   1
    85    39    81   1
    86    40    82   1
    87    40    83   1
    88    41    84   1
    89    41    85   1
    90    42    86   1
    91    42    87   1
    92    43    88   1
    93    44    89   1
    94    44    90   1
    95    45    91   1
    96    47    92   1
    97    47    93   1
    98    47    94   1
    99    48    95   1
   100    48    96   1
   101    48    97   1
   102    49    98   1
   103    49    99   1
   104    49   100   1
@<TRIPOS>SUBSTRUCTURE
     1  ROC      1

