@<TRIPOS>MOLECULE
3pww_ligand_079
   100   104
SMALL
GAST_HUCK
****
This file was generated by PARSER (from files_GN.cpp)

@<TRIPOS>ATOM
      1 C          -3.1306   -0.9435   10.2472 C.2         1 ROC       0.2293
      2 O          -2.0430   -0.6704   10.7431 O.2         1 ROC      -0.3762
      3 N1         -3.6128   -2.2314   12.1750 N.ar        1 ROC      -0.2737
      4 C2         -4.0389   -1.6766   11.0060 C.ar        1 ROC       0.1219
      5 C3         -5.3905   -1.8889   10.6398 C.ar        1 ROC      -0.0136
      6 C4         -6.2354   -2.6464   11.4676 C.ar        1 ROC      -0.0314
      7 C5         -6.5531   -3.9797   13.5254 C.ar        1 ROC      -0.0444
      8 C6         -6.0092   -4.5189   14.7073 C.ar        1 ROC      -0.0546
      9 C7         -4.6613   -4.2844   15.0378 C.ar        1 ROC      -0.0545
     10 C8         -3.8493   -3.5082   14.1910 C.ar        1 ROC      -0.0370
     11 C4A        -5.7442   -3.2064   12.6649 C.ar        1 ROC       0.0097
     12 C8A        -4.3860   -2.9735   13.0030 C.ar        1 ROC       0.0527
     13 N          -3.4094   -0.5481    9.0087 N.am        1 ROC      -0.2600
     14 CA         -2.5816    0.2463    8.1332 C.3         1 ROC       0.1473
     15 C1         -3.2701    1.5169    7.9207 C.2         1 ROC       0.2045
     16 O1         -3.4865    1.9263    6.7836 O.2         1 ROC      -0.3943
     17 CB         -2.2886   -0.6294    6.8718 C.3         1 ROC       0.0773
     18 CG         -1.1072   -0.2240    6.1343 C.2         1 ROC       0.1780
     19 OD1        -1.1834    0.6116    5.2439 O.2         1 ROC      -0.3970
     20 ND2         0.0670   -0.7627    6.3906 N.am        1 ROC      -0.3007
     21 C9         -5.2569    3.9828    7.9397 C.3         1 ROC       0.1194
     22 O2         -5.9753    2.9807    7.2171 O.3         1 ROC      -0.3840
     23 CA1        -4.5270    3.3424    9.1753 C.3         1 ROC       0.0823
     24 N2         -3.6919    2.1822    8.9914 N.am        1 ROC      -0.2772
     25 CB1        -3.8504    4.3927   10.1380 C.3         1 ROC       0.0066
     26 CG1        -2.3655    4.3132   10.2600 C.ar        1 ROC      -0.0408
     27 CD1        -1.5166    5.1404    9.4825 C.ar        1 ROC      -0.0603
     28 CD2        -1.7622    3.3759   11.1406 C.ar        1 ROC      -0.0603
     29 CE1        -0.1184    5.0142    9.5591 C.ar        1 ROC      -0.0686
     30 CE2        -0.3667    3.2535   11.2231 C.ar        1 ROC      -0.0686
     31 CZ          0.4578    4.0676   10.4251 C.ar        1 ROC      -0.0687
     32 N11        -4.7426    6.3033    6.9499 N.4         1 ROC       0.2562
     33 CM         -4.3915    4.8362    6.9522 C.3         1 ROC      -0.0008
     34 C21        -6.1041    6.7093    6.4141 C.3         1 ROC       0.0688
     35 CC         -6.3661    6.3315    5.0190 C.2         1 ROC       0.2251
     36 O3         -6.4727    7.1775    4.1442 O.2         1 ROC      -0.3909
     37 C31        -6.3832    8.2078    6.7906 C.3         1 ROC       0.0113
     38 C3A        -5.2174    9.2225    6.5572 C.3         1 ROC      -0.0261
     39 C41        -5.1575    9.8067    5.1123 C.3         1 ROC      -0.0494
     40 C51        -3.9968   10.8105    4.9288 C.3         1 ROC      -0.0528
     41 C61        -2.6389   10.1626    5.3001 C.3         1 ROC      -0.0526
     42 C71        -2.6659    9.6001    6.7441 C.3         1 ROC      -0.0451
     43 C7A        -3.8506    8.6216    7.0155 C.3         1 ROC       0.0024
     44 C81        -3.6464    7.1922    6.4320 C.3         1 ROC      -0.0266
     45 N3         -6.6523    5.0658    4.7261 N.am        1 ROC      -0.2771
     46 CD         -6.7898    4.4271    3.4359 C.3         1 ROC       0.0448
     47 C11        -7.3006    2.9821    3.7283 C.3         1 ROC      -0.0396
     48 C22        -5.3875    4.3425    2.7573 C.3         1 ROC      -0.0396
     49 C32        -7.8147    5.1320    2.4867 C.3         1 ROC      -0.0396
     50 H1         -5.7800   -1.4906    9.7851 H           1 ROC       0.0729
     51 H2         -7.2136   -2.7845   11.1962 H           1 ROC       0.0774
     52 H3         -7.5338   -4.1615   13.2966 H           1 ROC       0.0657
     53 H4         -6.5963   -5.0848   15.3211 H           1 ROC       0.0652
     54 H5         -4.2623   -4.6885   15.8893 H           1 ROC       0.0657
     55 H6         -2.8681   -3.3484   14.4349 H           1 ROC       0.0653
     56 H7         -4.2703   -0.8146    8.6457 H           1 ROC       0.1882
     57 H8         -1.6250    0.4756    8.6117 H           1 ROC       0.0826
     58 H9         -3.1554   -0.6444    6.2020 H           1 ROC       0.0551
     59 H10        -2.1396   -1.6678    7.1865 H           1 ROC       0.0551
     60 H11         0.8444   -0.4907    5.8768 H           1 ROC       0.1814
     61 H12         0.1582   -1.4297    7.0973 H           1 ROC       0.1814
     62 H13        -6.0306    4.6270    8.3659 H           1 ROC       0.0672
     63 H14        -6.5636    2.5573    7.8782 H           1 ROC       0.2101
     64 H15        -5.3495    2.9212    9.7593 H           1 ROC       0.0606
     65 H16        -3.4420    1.7640    9.8347 H           1 ROC       0.1857
     66 H17        -4.2669    4.2741   11.1453 H           1 ROC       0.0449
     67 H18        -4.1320    5.4084    9.8455 H           1 ROC       0.0449
     68 H19        -1.9157    5.8369    8.8562 H           1 ROC       0.0557
     69 H20        -2.3471    2.7729   11.7239 H           1 ROC       0.0557
     70 H21         0.4820    5.6126    8.9827 H           1 ROC       0.0599
     71 H22         0.0531    2.5712   11.8621 H           1 ROC       0.0599
     72 H23         1.4735    3.9808   10.4844 H           1 ROC       0.0559
     73 H24        -4.7857    6.5315    7.9448 H           1 ROC       0.2057
     74 H25        -4.4583    4.4495    5.9387 H           1 ROC       0.0841
     75 H26        -3.3457    4.7042    7.2446 H           1 ROC       0.0841
     76 H27        -6.8648    6.1714    6.9880 H           1 ROC       0.1100
     77 H28        -6.5990    8.2290    7.8657 H           1 ROC       0.0348
     78 H29        -7.2949    8.5580    6.2946 H           1 ROC       0.0348
     79 H30        -5.4252   10.0804    7.2061 H           1 ROC       0.0309
     80 H31        -6.1051   10.3015    4.8666 H           1 ROC       0.0268
     81 H32        -4.9888    9.0142    4.3910 H           1 ROC       0.0268
     82 H33        -4.1740   11.6885    5.5554 H           1 ROC       0.0265
     83 H34        -3.9711   11.1357    3.8844 H           1 ROC       0.0265
     84 H35        -1.8496   10.9147    5.2292 H           1 ROC       0.0265
     85 H36        -2.4065    9.3615    4.5956 H           1 ROC       0.0265
     86 H37        -2.7499   10.4474    7.4361 H           1 ROC       0.0270
     87 H38        -1.7132    9.1049    6.9587 H           1 ROC       0.0270
     88 H39        -3.8905    8.5020    8.1045 H           1 ROC       0.0355
     89 H40        -3.6449    7.2051    5.3374 H           1 ROC       0.0818
     90 H41        -2.6632    6.8351    6.7548 H           1 ROC       0.0818
     91 H42        -6.7232    4.4707    5.4894 H           1 ROC       0.1859
     92 H43        -7.4061    2.4106    2.8031 H           1 ROC       0.0254
     93 H44        -8.2741    3.0165    4.2236 H           1 ROC       0.0254
     94 H45        -6.6053    2.4469    4.3808 H           1 ROC       0.0254
     95 H46        -5.4451    3.7837    1.8216 H           1 ROC       0.0254
     96 H47        -4.6703    3.8398    3.4101 H           1 ROC       0.0254
     97 H48        -5.0010    5.3381    2.5368 H           1 ROC       0.0254
     98 H49        -8.0341    4.5017    1.6216 H           1 ROC       0.0254
     99 H50        -7.4227    6.0767    2.1048 H           1 ROC       0.0254
    100 H51        -8.7494    5.3345    3.0143 H           1 ROC       0.0254
@<TRIPOS>BOND
     1     1     2   2
     2     1     4   1
     3    13     1  am
     4     4     3  ar
     5     3    12  ar
     6     4     5  ar
     7     5     6  ar
     8     6    11  ar
     9     7     8  ar
    10    11     7  ar
    11     9     8  ar
    12    10     9  ar
    13    12    10  ar
    14    12    11  ar
    15    14    13   1
    16    15    14   1
    17    14    17   1
    18    15    16   2
    19    24    15  am
    20    17    18   1
    21    18    19   2
    22    18    20  am
    23    21    22   1
    24    23    21   1
    25    21    33   1
    26    23    24   1
    27    23    25   1
    28    25    26   1
    29    26    27  ar
    30    26    28  ar
    31    27    29  ar
    32    28    30  ar
    33    29    31  ar
    34    30    31  ar
    35    33    32   1
    36    32    34   1
    37    32    44   1
    38    34    35   1
    39    34    37   1
    40    35    36   2
    41    35    45  am
    42    37    38   1
    43    38    39   1
    44    38    43   1
    45    39    40   1
    46    40    41   1
    47    41    42   1
    48    42    43   1
    49    43    44   1
    50    45    46   1
    51    46    47   1
    52    46    48   1
    53    46    49   1
    54     5    50   1
    55     6    51   1
    56     7    52   1
    57     8    53   1
    58     9    54   1
    59    10    55   1
    60    13    56   1
    61    14    57   1
    62    17    58   1
    63    17    59   1
    64    20    60   1
    65    20    61   1
    66    21    62   1
    67    22    63   1
    68    23    64   1
    69    24    65   1
    70    25    66   1
    71    25    67   1
    72    27    68   1
    73    28    69   1
    74    29    70   1
    75    30    71   1
    76    31    72   1
    77    32    73   1
    78    33    74   1
    79    33    75   1
    80    34    76   1
    81    37    77   1
    82    37    78   1
    83    38    79   1
    84    39    80   1
    85    39    81   1
    86    40    82   1
    87    40    83   1
    88    41    84   1
    89    41    85   1
    90    42    86   1
    91    42    87   1
    92    43    88   1
    93    44    89   1
    94    44    90   1
    95    45    91   1
    96    47    92   1
    97    47    93   1
    98    47    94   1
    99    48    95   1
   100    48    96   1
   101    48    97   1
   102    49    98   1
   103    49    99   1
   104    49   100   1
@<TRIPOS>SUBSTRUCTURE
     1  ROC      1

