@<TRIPOS>MOLECULE
3pww_ligand_006
   100   104
SMALL
GAST_HUCK
****
This file was generated by PARSER (from files_GN.cpp)

@<TRIPOS>ATOM
      1 C          -6.0085    1.3272    8.7658 C.2         1 ROC       0.2293
      2 O          -5.3495    0.3698    8.3672 O.2         1 ROC      -0.3762
      3 N1         -7.7663   -0.1926    9.3425 N.ar        1 ROC      -0.2737
      4 C2         -7.2904    1.0880    9.2787 C.ar        1 ROC       0.1219
      5 C3         -8.1694    2.1211    9.7031 C.ar        1 ROC      -0.0136
      6 C4         -9.4545    1.8119   10.1756 C.ar        1 ROC      -0.0314
      7 C5        -11.1747    0.1222   10.6939 C.ar        1 ROC      -0.0444
      8 C6        -11.5756   -1.2244   10.7034 C.ar        1 ROC      -0.0546
      9 C7        -10.6967   -2.2273   10.2556 C.ar        1 ROC      -0.0545
     10 C8         -9.4067   -1.8900    9.8026 C.ar        1 ROC      -0.0370
     11 C4A        -9.8890    0.4726   10.2303 C.ar        1 ROC       0.0097
     12 C8A        -9.0009   -0.5409    9.7867 C.ar        1 ROC       0.0527
     13 N          -5.5010    2.5509    8.6770 N.am        1 ROC      -0.2600
     14 CA         -4.2629    2.9905    8.0800 C.3         1 ROC       0.1473
     15 C1         -3.3858    3.5026    9.1334 C.2         1 ROC       0.2045
     16 O1         -3.9008    4.0746   10.0866 O.2         1 ROC      -0.3943
     17 CB         -4.6139    4.0707    7.0061 C.3         1 ROC       0.0773
     18 CG         -3.4576    4.6253    6.3201 C.2         1 ROC       0.1780
     19 OD1        -3.1336    4.2254    5.2095 O.2         1 ROC      -0.3970
     20 ND2        -2.7068    5.5399    6.9003 N.am        1 ROC      -0.3007
     21 C9         -0.1382    4.9218    9.2943 C.3         1 ROC       0.1194
     22 O2          0.7191    4.3324    8.3097 O.3         1 ROC      -0.3840
     23 CA1        -1.0880    3.8807    9.9710 C.3         1 ROC       0.0823
     24 N2         -2.0656    3.4390    9.0040 N.am        1 ROC      -0.2772
     25 CB1        -0.3723    2.6541   10.6302 C.3         1 ROC       0.0066
     26 CG1        -1.2919    1.5718   11.0723 C.ar        1 ROC      -0.0408
     27 CD1        -0.9724    0.2085   10.8339 C.ar        1 ROC      -0.0603
     28 CD2        -2.5209    1.8755   11.7075 C.ar        1 ROC      -0.0603
     29 CE1        -1.8531   -0.8109   11.2179 C.ar        1 ROC      -0.0686
     30 CE2        -3.4216    0.8548   12.0541 C.ar        1 ROC      -0.0686
     31 CZ         -3.0874   -0.4956   11.8189 C.ar        1 ROC      -0.0687
     32 N11         1.5610    6.8413    9.7514 N.4         1 ROC       0.2562
     33 CM          0.7054    5.7378   10.3240 C.3         1 ROC      -0.0008
     34 C21         2.7252    7.2193   10.6484 C.3         1 ROC       0.0688
     35 CC          2.4339    7.6753   12.0173 C.2         1 ROC       0.2251
     36 O3          1.2792    7.9302   12.3415 O.2         1 ROC      -0.3909
     37 C31         3.6646    8.1999    9.8784 C.3         1 ROC       0.0113
     38 C3A         2.9430    9.4455    9.2826 C.3         1 ROC      -0.0261
     39 C41         2.6074   10.5542   10.3302 C.3         1 ROC      -0.0494
     40 C51         1.8970   11.7684    9.6802 C.3         1 ROC      -0.0528
     41 C61         0.6184   11.3355    8.9220 C.3         1 ROC      -0.0526
     42 C71         0.9242   10.2346    7.8723 C.3         1 ROC      -0.0451
     43 C7A         1.6901    9.0044    8.4566 C.3         1 ROC       0.0024
     44 C81         0.7826    8.0304    9.2627 C.3         1 ROC      -0.0266
     45 N3          3.4341    7.7718   12.8941 N.am        1 ROC      -0.2771
     46 CD          3.4731    8.1934   14.2783 C.3         1 ROC       0.0448
     47 C11         4.7057    9.1485   14.3914 C.3         1 ROC      -0.0396
     48 C22         3.7190    6.9132   15.1363 C.3         1 ROC      -0.0396
     49 C32         2.2125    8.9531   14.8138 C.3         1 ROC      -0.0396
     50 H1         -7.9010    3.1033    9.6747 H           1 ROC       0.0729
     51 H2        -10.0790    2.5696   10.4767 H           1 ROC       0.0774
     52 H3        -11.8246    0.8453   11.0218 H           1 ROC       0.0657
     53 H4        -12.5079   -1.4734   11.0411 H           1 ROC       0.0652
     54 H5        -10.9982   -3.2028   10.2607 H           1 ROC       0.0657
     55 H6         -8.7733   -2.6229    9.4772 H           1 ROC       0.0653
     56 H7         -6.0560    3.2587    9.0330 H           1 ROC       0.1882
     57 H8         -3.7759    2.1573    7.5605 H           1 ROC       0.0826
     58 H9         -5.1880    4.8829    7.4754 H           1 ROC       0.0551
     59 H10        -5.2675    3.6194    6.2471 H           1 ROC       0.0551
     60 H11        -1.9291    5.8975    6.4363 H           1 ROC       0.1814
     61 H12        -2.9239    5.8559    7.7984 H           1 ROC       0.1814
     62 H13        -0.7863    5.6219    8.7608 H           1 ROC       0.0672
     63 H14         1.4069    3.8402    8.8086 H           1 ROC       0.2101
     64 H15        -1.5863    4.4163   10.7874 H           1 ROC       0.0606
     65 H16        -1.7131    3.0425    8.1909 H           1 ROC       0.1857
     66 H17         0.1727    2.9902   11.5198 H           1 ROC       0.0449
     67 H18         0.3756    2.2612    9.9366 H           1 ROC       0.0449
     68 H19        -0.0925   -0.0419   10.3736 H           1 ROC       0.0557
     69 H20        -2.7856    2.8497   11.8931 H           1 ROC       0.0557
     70 H21        -1.6050   -1.7914   11.0563 H           1 ROC       0.0599
     71 H22        -4.3186    1.0892   12.4843 H           1 ROC       0.0599
     72 H23        -3.7427   -1.2386   12.0695 H           1 ROC       0.0559
     73 H24         1.9900    6.4380    8.9071 H           1 ROC       0.2057
     74 H25         1.3507    5.0128   10.8312 H           1 ROC       0.0841
     75 H26         0.0174    6.1419   11.0767 H           1 ROC       0.0841
     76 H27         3.3125    6.2975   10.7629 H           1 ROC       0.1100
     77 H28         4.1081    7.6458    9.0443 H           1 ROC       0.0348
     78 H29         4.4963    8.5235   10.5088 H           1 ROC       0.0348
     79 H30         3.6466    9.9048    8.5768 H           1 ROC       0.0309
     80 H31         3.5270   10.9002   10.8079 H           1 ROC       0.0268
     81 H32         1.9568   10.1678   11.1096 H           1 ROC       0.0268
     82 H33         2.5813   12.2606    8.9848 H           1 ROC       0.0265
     83 H34         1.6292   12.4919   10.4543 H           1 ROC       0.0265
     84 H35         0.1860   12.2050    8.4171 H           1 ROC       0.0265
     85 H36        -0.1217   10.9661    9.6340 H           1 ROC       0.0265
     86 H37         1.5340   10.6832    7.0788 H           1 ROC       0.0270
     87 H38        -0.0125    9.9101    7.4092 H           1 ROC       0.0270
     88 H39         2.0540    8.4369    7.5900 H           1 ROC       0.0355
     89 H40         0.2985    8.5497   10.0912 H           1 ROC       0.0818
     90 H41        -0.0108    7.7085    8.5873 H           1 ROC       0.0818
     91 H42         4.2920    7.4740   12.5437 H           1 ROC       0.1859
     92 H43         4.8609    9.4593   15.4288 H           1 ROC       0.0254
     93 H44         4.5505   10.0469   13.7808 H           1 ROC       0.0254
     94 H45         5.6185    8.6504   14.0451 H           1 ROC       0.0254
     95 H46         3.7877    7.1649   16.1996 H           1 ROC       0.0254
     96 H47         4.6521    6.4244   14.8368 H           1 ROC       0.0254
     97 H48         2.8946    6.2017   14.9996 H           1 ROC       0.0254
     98 H49         2.3846    9.3175   15.8316 H           1 ROC       0.0254
     99 H50         1.3344    8.2982   14.8254 H           1 ROC       0.0254
    100 H51         1.9932    9.8146   14.1793 H           1 ROC       0.0254
@<TRIPOS>BOND
     1     1     2   2
     2     1     4   1
     3    13     1  am
     4     4     3  ar
     5     3    12  ar
     6     4     5  ar
     7     5     6  ar
     8     6    11  ar
     9     7     8  ar
    10    11     7  ar
    11     9     8  ar
    12    10     9  ar
    13    12    10  ar
    14    12    11  ar
    15    14    13   1
    16    15    14   1
    17    14    17   1
    18    15    16   2
    19    24    15  am
    20    17    18   1
    21    18    19   2
    22    18    20  am
    23    21    22   1
    24    23    21   1
    25    21    33   1
    26    23    24   1
    27    23    25   1
    28    25    26   1
    29    26    27  ar
    30    26    28  ar
    31    27    29  ar
    32    28    30  ar
    33    29    31  ar
    34    30    31  ar
    35    33    32   1
    36    32    34   1
    37    32    44   1
    38    34    35   1
    39    34    37   1
    40    35    36   2
    41    35    45  am
    42    37    38   1
    43    38    39   1
    44    38    43   1
    45    39    40   1
    46    40    41   1
    47    41    42   1
    48    42    43   1
    49    43    44   1
    50    45    46   1
    51    46    47   1
    52    46    48   1
    53    46    49   1
    54     5    50   1
    55     6    51   1
    56     7    52   1
    57     8    53   1
    58     9    54   1
    59    10    55   1
    60    13    56   1
    61    14    57   1
    62    17    58   1
    63    17    59   1
    64    20    60   1
    65    20    61   1
    66    21    62   1
    67    22    63   1
    68    23    64   1
    69    24    65   1
    70    25    66   1
    71    25    67   1
    72    27    68   1
    73    28    69   1
    74    29    70   1
    75    30    71   1
    76    31    72   1
    77    32    73   1
    78    33    74   1
    79    33    75   1
    80    34    76   1
    81    37    77   1
    82    37    78   1
    83    38    79   1
    84    39    80   1
    85    39    81   1
    86    40    82   1
    87    40    83   1
    88    41    84   1
    89    41    85   1
    90    42    86   1
    91    42    87   1
    92    43    88   1
    93    44    89   1
    94    44    90   1
    95    45    91   1
    96    47    92   1
    97    47    93   1
    98    47    94   1
    99    48    95   1
   100    48    96   1
   101    48    97   1
   102    49    98   1
   103    49    99   1
   104    49   100   1
@<TRIPOS>SUBSTRUCTURE
     1  ROC      1

