@<TRIPOS>MOLECULE
3pww_ligand_053
   100   104
SMALL
GAST_HUCK
****
This file was generated by PARSER (from files_GN.cpp)

@<TRIPOS>ATOM
      1 C          -1.1651    7.1935    8.5172 C.2         1 ROC       0.2293
      2 O          -2.2224    6.8712    7.9879 O.2         1 ROC      -0.3762
      3 N1         -1.8306    9.4732    8.3548 N.ar        1 ROC      -0.2737
      4 C2         -0.8851    8.5513    8.7037 C.ar        1 ROC       0.1219
      5 C3          0.3176    9.0418    9.2750 C.ar        1 ROC      -0.0136
      6 C4          0.4997   10.4230    9.4706 C.ar        1 ROC      -0.0314
      7 C5         -0.3759   12.7256    9.2815 C.ar        1 ROC      -0.0444
      8 C6         -1.4181   13.5927    8.9022 C.ar        1 ROC      -0.0546
      9 C7         -2.5994   13.0753    8.3383 C.ar        1 ROC      -0.0545
     10 C8         -2.7427   11.6887    8.1498 C.ar        1 ROC      -0.0370
     11 C4A        -0.5108   11.3323    9.0980 C.ar        1 ROC       0.0097
     12 C8A        -1.7020   10.8153    8.5245 C.ar        1 ROC       0.0527
     13 N          -0.3326    6.2381    8.9275 N.am        1 ROC      -0.2600
     14 CA         -0.5168    4.8096    8.8599 C.3         1 ROC       0.1473
     15 C1         -1.6235    4.2975    9.6711 C.2         1 ROC       0.2045
     16 O1         -2.0386    4.9468   10.6263 O.2         1 ROC      -0.3943
     17 CB          0.8225    4.0669    9.1963 C.3         1 ROC       0.0773
     18 CG          1.6318    4.6788   10.2374 C.2         1 ROC       0.1780
     19 OD1         1.1498    4.9584   11.3299 O.2         1 ROC      -0.3970
     20 ND2         2.8894    4.9908   10.0207 N.am        1 ROC      -0.3007
     21 C9         -4.5822    3.3001    9.9501 C.3         1 ROC       0.1194
     22 O2         -5.6678    2.4412   10.2993 O.3         1 ROC      -0.3840
     23 CA1        -3.2711    2.4317    9.9351 C.3         1 ROC       0.0823
     24 N2         -2.1519    3.1225    9.3435 N.am        1 ROC      -0.2772
     25 CB1        -2.8740    1.7894   11.3177 C.3         1 ROC       0.0066
     26 CG1        -3.3617    0.3883   11.5128 C.ar        1 ROC      -0.0408
     27 CD1        -4.7276    0.1230   11.7721 C.ar        1 ROC      -0.0603
     28 CD2        -2.4765   -0.7161   11.4328 C.ar        1 ROC      -0.0603
     29 CE1        -5.2031   -1.1960   11.8986 C.ar        1 ROC      -0.0686
     30 CE2        -2.9466   -2.0367   11.5632 C.ar        1 ROC      -0.0686
     31 CZ         -4.3137   -2.2769   11.7855 C.ar        1 ROC      -0.0687
     32 N11        -6.1988    4.0726    7.9048 N.4         1 ROC       0.2562
     33 CM         -4.8628    4.1241    8.6308 C.3         1 ROC      -0.0008
     34 C21        -6.7619    2.7110    7.5531 C.3         1 ROC       0.0688
     35 CC         -5.8412    1.7402    6.9570 C.2         1 ROC       0.2251
     36 O3         -4.8124    2.1268    6.4214 O.2         1 ROC      -0.3909
     37 C31        -8.1291    2.8096    6.7977 C.3         1 ROC       0.0113
     38 C3A        -8.1619    3.7966    5.5984 C.3         1 ROC      -0.0261
     39 C41        -7.4807    3.2479    4.3053 C.3         1 ROC      -0.0494
     40 C51        -7.5308    4.2716    3.1414 C.3         1 ROC      -0.0528
     41 C61        -6.9147    5.6322    3.5539 C.3         1 ROC      -0.0526
     42 C71        -7.5738    6.1944    4.8444 C.3         1 ROC      -0.0451
     43 C7A        -7.5884    5.1813    6.0372 C.3         1 ROC       0.0024
     44 C81        -6.2004    5.0279    6.7354 C.3         1 ROC      -0.0266
     45 N3         -6.1206    0.4475    7.0892 N.am        1 ROC      -0.2771
     46 CD         -5.3440   -0.7382    6.8132 C.3         1 ROC       0.0448
     47 C11        -3.8114   -0.5268    6.5864 C.3         1 ROC      -0.0396
     48 C22        -5.9846   -1.4251    5.5730 C.3         1 ROC      -0.0396
     49 C32        -5.5289   -1.6360    8.0744 C.3         1 ROC      -0.0396
     50 H1          1.0697    8.4118    9.5582 H           1 ROC       0.0729
     51 H2          1.3707   10.7568    9.8890 H           1 ROC       0.0774
     52 H3          0.4741   13.1174    9.6946 H           1 ROC       0.0657
     53 H4         -1.3206   14.6003    9.0435 H           1 ROC       0.0652
     54 H5         -3.3553   13.7094    8.0688 H           1 ROC       0.0657
     55 H6         -3.6060   11.3195    7.7424 H           1 ROC       0.0653
     56 H7          0.4983    6.5346    9.3225 H           1 ROC       0.1882
     57 H8         -0.7536    4.5827    7.8133 H           1 ROC       0.0826
     58 H9          1.4127    4.0068    8.2761 H           1 ROC       0.0551
     59 H10         0.6241    3.0319    9.4947 H           1 ROC       0.0551
     60 H11         3.4128    5.4389   10.7049 H           1 ROC       0.1814
     61 H12         3.2969    4.7727    9.1639 H           1 ROC       0.1814
     62 H13        -4.4943    4.0105   10.7807 H           1 ROC       0.0672
     63 H14        -6.4169    3.0400   10.5256 H           1 ROC       0.2101
     64 H15        -3.4709    1.6156    9.2363 H           1 ROC       0.0606
     65 H16        -1.7370    2.6723    8.5839 H           1 ROC       0.1857
     66 H17        -3.2330    2.4089   12.1448 H           1 ROC       0.0449
     67 H18        -1.7834    1.7872   11.4181 H           1 ROC       0.0449
     68 H19        -5.3917    0.8917   11.8795 H           1 ROC       0.0557
     69 H20        -1.4792   -0.5672   11.2656 H           1 ROC       0.0557
     70 H21        -6.1940   -1.3701   12.0842 H           1 ROC       0.0599
     71 H22        -2.2975   -2.8234   11.4939 H           1 ROC       0.0599
     72 H23        -4.6635   -3.2331   11.8673 H           1 ROC       0.0559
     73 H24        -6.8649    4.4615    8.5757 H           1 ROC       0.2057
     74 H25        -4.0817    3.9064    7.9040 H           1 ROC       0.0841
     75 H26        -4.6996    5.1708    8.9143 H           1 ROC       0.0841
     76 H27        -7.0488    2.2768    8.5122 H           1 ROC       0.1100
     77 H28        -8.8691    3.1702    7.5193 H           1 ROC       0.0348
     78 H29        -8.4669    1.8212    6.4772 H           1 ROC       0.0348
     79 H30        -9.2185    3.9458    5.3466 H           1 ROC       0.0309
     80 H31        -7.9831    2.3301    3.9882 H           1 ROC       0.0268
     81 H32        -6.4380    3.0058    4.5013 H           1 ROC       0.0268
     82 H33        -8.5696    4.4227    2.8281 H           1 ROC       0.0265
     83 H34        -6.9774    3.8757    2.2842 H           1 ROC       0.0265
     84 H35        -7.0474    6.3529    2.7396 H           1 ROC       0.0265
     85 H36        -5.8394    5.5103    3.7134 H           1 ROC       0.0265
     86 H37        -8.6051    6.4737    4.6080 H           1 ROC       0.0270
     87 H38        -7.0514    7.1098    5.1395 H           1 ROC       0.0270
     88 H39        -8.2670    5.5986    6.7884 H           1 ROC       0.0355
     89 H40        -5.4518    4.7190    5.9992 H           1 ROC       0.0818
     90 H41        -5.9180    6.0256    7.0869 H           1 ROC       0.0818
     91 H42        -6.9921    0.2669    7.4818 H           1 ROC       0.1859
     92 H43        -3.2868   -1.4825    6.5284 H           1 ROC       0.0254
     93 H44        -3.3766    0.0442    7.4077 H           1 ROC       0.0254
     94 H45        -3.6259    0.0076    5.6544 H           1 ROC       0.0254
     95 H46        -5.4883   -2.3751    5.3604 H           1 ROC       0.0254
     96 H47        -5.8928   -0.7799    4.6956 H           1 ROC       0.0254
     97 H48        -7.0478   -1.6237    5.7401 H           1 ROC       0.0254
     98 H49        -5.0080   -2.5895    7.9576 H           1 ROC       0.0254
     99 H50        -6.5875   -1.8499    8.2570 H           1 ROC       0.0254
    100 H51        -5.1297   -1.1313    8.9581 H           1 ROC       0.0254
@<TRIPOS>BOND
     1     1     2   2
     2     1     4   1
     3    13     1  am
     4     4     3  ar
     5     3    12  ar
     6     4     5  ar
     7     5     6  ar
     8     6    11  ar
     9     7     8  ar
    10    11     7  ar
    11     9     8  ar
    12    10     9  ar
    13    12    10  ar
    14    12    11  ar
    15    14    13   1
    16    15    14   1
    17    14    17   1
    18    15    16   2
    19    24    15  am
    20    17    18   1
    21    18    19   2
    22    18    20  am
    23    21    22   1
    24    23    21   1
    25    21    33   1
    26    23    24   1
    27    23    25   1
    28    25    26   1
    29    26    27  ar
    30    26    28  ar
    31    27    29  ar
    32    28    30  ar
    33    29    31  ar
    34    30    31  ar
    35    33    32   1
    36    32    34   1
    37    32    44   1
    38    34    35   1
    39    34    37   1
    40    35    36   2
    41    35    45  am
    42    37    38   1
    43    38    39   1
    44    38    43   1
    45    39    40   1
    46    40    41   1
    47    41    42   1
    48    42    43   1
    49    43    44   1
    50    45    46   1
    51    46    47   1
    52    46    48   1
    53    46    49   1
    54     5    50   1
    55     6    51   1
    56     7    52   1
    57     8    53   1
    58     9    54   1
    59    10    55   1
    60    13    56   1
    61    14    57   1
    62    17    58   1
    63    17    59   1
    64    20    60   1
    65    20    61   1
    66    21    62   1
    67    22    63   1
    68    23    64   1
    69    24    65   1
    70    25    66   1
    71    25    67   1
    72    27    68   1
    73    28    69   1
    74    29    70   1
    75    30    71   1
    76    31    72   1
    77    32    73   1
    78    33    74   1
    79    33    75   1
    80    34    76   1
    81    37    77   1
    82    37    78   1
    83    38    79   1
    84    39    80   1
    85    39    81   1
    86    40    82   1
    87    40    83   1
    88    41    84   1
    89    41    85   1
    90    42    86   1
    91    42    87   1
    92    43    88   1
    93    44    89   1
    94    44    90   1
    95    45    91   1
    96    47    92   1
    97    47    93   1
    98    47    94   1
    99    48    95   1
   100    48    96   1
   101    48    97   1
   102    49    98   1
   103    49    99   1
   104    49   100   1
@<TRIPOS>SUBSTRUCTURE
     1  ROC      1

