@<TRIPOS>MOLECULE
3pww_ligand_078
   100   104
SMALL
GAST_HUCK
****
This file was generated by PARSER (from files_GN.cpp)

@<TRIPOS>ATOM
      1 C           2.5113   10.1838    9.1551 C.2         1 ROC       0.2293
      2 O           3.6048    9.6702    8.9413 O.2         1 ROC      -0.3762
      3 N1          3.5732   12.2987    9.1372 N.ar        1 ROC      -0.2737
      4 C2          2.4209   11.5722    9.1166 C.ar        1 ROC       0.1219
      5 C3          1.1980   12.2851    9.0409 C.ar        1 ROC      -0.0136
      6 C4          1.2073   13.6870    8.9199 C.ar        1 ROC      -0.0314
      7 C5          2.4944   15.7972    8.8036 C.ar        1 ROC      -0.0444
      8 C6          3.7370   16.4539    8.8411 C.ar        1 ROC      -0.0546
      9 C7          4.9239   15.7154    9.0047 C.ar        1 ROC      -0.0545
     10 C8          4.8714   14.3142    9.1136 C.ar        1 ROC      -0.0370
     11 C4A         2.4276   14.3904    8.9283 C.ar        1 ROC       0.0097
     12 C8A         3.6311   13.6531    9.0676 C.ar        1 ROC       0.0527
     13 N           1.4623    9.4078    9.4050 N.am        1 ROC      -0.2600
     14 CA          1.4490    7.9736    9.5098 C.3         1 ROC       0.1473
     15 C1          0.0527    7.5687    9.6317 C.2         1 ROC       0.2045
     16 O1         -0.5275    7.7629   10.6928 O.2         1 ROC      -0.3943
     17 CB          2.3423    7.4754   10.6952 C.3         1 ROC       0.0773
     18 CG          2.3435    6.0433   10.9208 C.2         1 ROC       0.1780
     19 OD1         2.0710    5.5917   12.0250 O.2         1 ROC      -0.3970
     20 ND2         2.7130    5.2030    9.9757 N.am        1 ROC      -0.3007
     21 C9         -1.8580    5.0471    8.3667 C.3         1 ROC       0.1194
     22 O2         -1.2056    4.7601    7.1339 O.3         1 ROC      -0.3840
     23 CA1        -1.9465    6.6046    8.5171 C.3         1 ROC       0.0823
     24 N2         -0.5834    7.0599    8.5857 N.am        1 ROC      -0.2772
     25 CB1        -2.6994    7.3273    7.3472 C.3         1 ROC       0.0066
     26 CG1        -2.6496    8.8195    7.3750 C.ar        1 ROC      -0.0408
     27 CD1        -3.7861    9.5946    7.7223 C.ar        1 ROC      -0.0603
     28 CD2        -1.4644    9.5081    7.0068 C.ar        1 ROC      -0.0603
     29 CE1        -3.7235   11.0015    7.7507 C.ar        1 ROC      -0.0686
     30 CE2        -1.4068   10.9133    7.0296 C.ar        1 ROC      -0.0686
     31 CZ         -2.5305   11.6619    7.4137 C.ar        1 ROC      -0.0687
     32 N11        -3.1238    2.7999    8.1361 N.4         1 ROC       0.2562
     33 CM         -3.2030    4.2685    8.5065 C.3         1 ROC      -0.0008
     34 C21        -3.2886    2.4913    6.6663 C.3         1 ROC       0.0688
     35 CC         -4.5096    3.0225    6.0343 C.2         1 ROC       0.2251
     36 O3         -5.6049    2.6117    6.4030 O.2         1 ROC      -0.3909
     37 C31        -2.9724    0.9842    6.3806 C.3         1 ROC       0.0113
     38 C3A        -3.6137   -0.0793    7.3278 C.3         1 ROC      -0.0261
     39 C41        -5.0210   -0.5614    6.8497 C.3         1 ROC      -0.0494
     40 C51        -5.6830   -1.5584    7.8327 C.3         1 ROC      -0.0528
     41 C61        -5.7480   -0.9633    9.2605 C.3         1 ROC      -0.0526
     42 C71        -4.3340   -0.5790    9.7716 C.3         1 ROC      -0.0451
     43 C7A        -3.5597    0.3961    8.8217 C.3         1 ROC       0.0024
     44 C81        -3.9507    1.8969    9.0066 C.3         1 ROC      -0.0266
     45 N3         -4.4241    4.0344    5.1760 N.am        1 ROC      -0.2771
     46 CD         -5.4396    4.7224    4.4064 C.3         1 ROC       0.0448
     47 C11        -4.8116    4.9185    2.9935 C.3         1 ROC      -0.0396
     48 C22        -5.6879    6.1096    5.0696 C.3         1 ROC      -0.0396
     49 C32        -6.8055    3.9773    4.2383 C.3         1 ROC      -0.0396
     50 H1          0.2958   11.8022    9.0445 H           1 ROC       0.0729
     51 H2          0.3182   14.1873    8.8233 H           1 ROC       0.0774
     52 H3          1.6448   16.3498    8.6935 H           1 ROC       0.0657
     53 H4          3.7786   17.4731    8.7595 H           1 ROC       0.0652
     54 H5          5.8240   16.1989    9.0490 H           1 ROC       0.0657
     55 H6          5.7387   13.7836    9.2280 H           1 ROC       0.0653
     56 H7          0.6092    9.8492    9.5352 H           1 ROC       0.1882
     57 H8          1.8600    7.5683    8.5762 H           1 ROC       0.0826
     58 H9          2.0313    7.9956   11.6081 H           1 ROC       0.0551
     59 H10         3.3800    7.7608   10.5102 H           1 ROC       0.0551
     60 H11         2.8083    4.2560   10.1681 H           1 ROC       0.1814
     61 H12         2.9022    5.5295    9.0806 H           1 ROC       0.1814
     62 H13        -1.1974    4.6618    9.1525 H           1 ROC       0.0672
     63 H14        -0.9241    3.8331    7.2130 H           1 ROC       0.2101
     64 H15        -2.4868    6.8288    9.4408 H           1 ROC       0.0606
     65 H16        -0.0639    6.9370    7.7752 H           1 ROC       0.1857
     66 H17        -3.7450    7.0107    7.3741 H           1 ROC       0.0449
     67 H18        -2.3060    6.9909    6.3829 H           1 ROC       0.0449
     68 H19        -4.6696    9.1382    7.9581 H           1 ROC       0.0557
     69 H20        -0.6346    8.9858    6.7164 H           1 ROC       0.0557
     70 H21        -4.5485   11.5470    8.0148 H           1 ROC       0.0599
     71 H22        -0.5429   11.3927    6.7657 H           1 ROC       0.0599
     72 H23        -2.4853   12.6857    7.4359 H           1 ROC       0.0559
     73 H24        -2.1601    2.5301    8.3313 H           1 ROC       0.2057
     74 H25        -3.9709    4.7665    7.9174 H           1 ROC       0.0841
     75 H26        -3.5158    4.3961    9.5502 H           1 ROC       0.0841
     76 H27        -2.4603    2.9900    6.1582 H           1 ROC       0.1100
     77 H28        -1.8888    0.8588    6.4779 H           1 ROC       0.0348
     78 H29        -3.2126    0.7463    5.3449 H           1 ROC       0.0348
     79 H30        -2.9789   -0.9779    7.2721 H           1 ROC       0.0309
     80 H31        -4.9178   -1.0533    5.8778 H           1 ROC       0.0268
     81 H32        -5.6993    0.2810    6.7264 H           1 ROC       0.0268
     82 H33        -5.1061   -2.4876    7.8527 H           1 ROC       0.0265
     83 H34        -6.6961   -1.7939    7.4911 H           1 ROC       0.0265
     84 H35        -6.1893   -1.7007    9.9383 H           1 ROC       0.0265
     85 H36        -6.3975   -0.0811    9.2625 H           1 ROC       0.0265
     86 H37        -3.7509   -1.4995    9.8718 H           1 ROC       0.0270
     87 H38        -4.4210   -0.1433   10.7698 H           1 ROC       0.0270
     88 H39        -2.5078    0.3381    9.1332 H           1 ROC       0.0355
     89 H40        -5.0111    2.0422    8.8131 H           1 ROC       0.0818
     90 H41        -3.7786    2.1507   10.0555 H           1 ROC       0.0818
     91 H42        -3.5319    4.4187    5.0813 H           1 ROC       0.1859
     92 H43        -5.4881    5.4611    2.3295 H           1 ROC       0.0254
     93 H44        -4.5898    3.9509    2.5359 H           1 ROC       0.0254
     94 H45        -3.8778    5.4827    3.0557 H           1 ROC       0.0254
     95 H46        -6.4406    6.6755    4.5144 H           1 ROC       0.0254
     96 H47        -4.7698    6.6988    5.0915 H           1 ROC       0.0254
     97 H48        -6.0395    5.9837    6.0974 H           1 ROC       0.0254
     98 H49        -7.4391    4.4879    3.5083 H           1 ROC       0.0254
     99 H50        -7.3587    3.9460    5.1775 H           1 ROC       0.0254
    100 H51        -6.6488    2.9550    3.8912 H           1 ROC       0.0254
@<TRIPOS>BOND
     1     1     2   2
     2     1     4   1
     3    13     1  am
     4     4     3  ar
     5     3    12  ar
     6     4     5  ar
     7     5     6  ar
     8     6    11  ar
     9     7     8  ar
    10    11     7  ar
    11     9     8  ar
    12    10     9  ar
    13    12    10  ar
    14    12    11  ar
    15    14    13   1
    16    15    14   1
    17    14    17   1
    18    15    16   2
    19    24    15  am
    20    17    18   1
    21    18    19   2
    22    18    20  am
    23    21    22   1
    24    23    21   1
    25    21    33   1
    26    23    24   1
    27    23    25   1
    28    25    26   1
    29    26    27  ar
    30    26    28  ar
    31    27    29  ar
    32    28    30  ar
    33    29    31  ar
    34    30    31  ar
    35    33    32   1
    36    32    34   1
    37    32    44   1
    38    34    35   1
    39    34    37   1
    40    35    36   2
    41    35    45  am
    42    37    38   1
    43    38    39   1
    44    38    43   1
    45    39    40   1
    46    40    41   1
    47    41    42   1
    48    42    43   1
    49    43    44   1
    50    45    46   1
    51    46    47   1
    52    46    48   1
    53    46    49   1
    54     5    50   1
    55     6    51   1
    56     7    52   1
    57     8    53   1
    58     9    54   1
    59    10    55   1
    60    13    56   1
    61    14    57   1
    62    17    58   1
    63    17    59   1
    64    20    60   1
    65    20    61   1
    66    21    62   1
    67    22    63   1
    68    23    64   1
    69    24    65   1
    70    25    66   1
    71    25    67   1
    72    27    68   1
    73    28    69   1
    74    29    70   1
    75    30    71   1
    76    31    72   1
    77    32    73   1
    78    33    74   1
    79    33    75   1
    80    34    76   1
    81    37    77   1
    82    37    78   1
    83    38    79   1
    84    39    80   1
    85    39    81   1
    86    40    82   1
    87    40    83   1
    88    41    84   1
    89    41    85   1
    90    42    86   1
    91    42    87   1
    92    43    88   1
    93    44    89   1
    94    44    90   1
    95    45    91   1
    96    47    92   1
    97    47    93   1
    98    47    94   1
    99    48    95   1
   100    48    96   1
   101    48    97   1
   102    49    98   1
   103    49    99   1
   104    49   100   1
@<TRIPOS>SUBSTRUCTURE
     1  ROC      1

