@<TRIPOS>MOLECULE
3pww_ligand_001
   100   104
SMALL
GAST_HUCK
****
This file was generated by PARSER (from files_GN.cpp)

@<TRIPOS>ATOM
      1 C          -3.1401   -0.8144   10.2460 C.2         1 ROC       0.2293
      2 O          -2.0157   -0.6101   10.6877 O.2         1 ROC      -0.3762
      3 N1         -3.5887   -2.1281   12.1710 N.ar        1 ROC      -0.2737
      4 C2         -4.0394   -1.5544   11.0215 C.ar        1 ROC       0.1219
      5 C3         -5.3945   -1.7660   10.6696 C.ar        1 ROC      -0.0136
      6 C4         -6.2191   -2.5662   11.4891 C.ar        1 ROC      -0.0314
      7 C5         -6.4850   -3.9730   13.5028 C.ar        1 ROC      -0.0444
      8 C6         -5.9206   -4.5304   14.6619 C.ar        1 ROC      -0.0546
      9 C7         -4.5755   -4.2749   14.9929 C.ar        1 ROC      -0.0545
     10 C8         -3.7892   -3.4557   14.1615 C.ar        1 ROC      -0.0370
     11 C4A        -5.7023   -3.1506   12.6553 C.ar        1 ROC       0.0097
     12 C8A        -4.3453   -2.9019   12.9944 C.ar        1 ROC       0.0527
     13 N          -3.4607   -0.3841    9.0309 N.am        1 ROC      -0.2600
     14 CA         -2.6386    0.3375    8.0950 C.3         1 ROC       0.1473
     15 C1         -3.3306    1.5929    7.8096 C.2         1 ROC       0.2045
     16 O1         -4.4906    1.5664    7.4174 O.2         1 ROC      -0.3943
     17 CB         -2.4018   -0.5561    6.8373 C.3         1 ROC       0.0773
     18 CG         -1.1835   -0.2302    6.1160 C.2         1 ROC       0.1780
     19 OD1        -1.2023    0.5862    5.2087 O.2         1 ROC      -0.3970
     20 ND2        -0.0333   -0.7763    6.4441 N.am        1 ROC      -0.3007
     21 C9         -3.3460    4.8852    6.9152 C.3         1 ROC       0.1194
     22 O2         -2.8681    4.1109    5.8015 O.3         1 ROC      -0.3840
     23 CA1        -3.3668    4.0310    8.2479 C.3         1 ROC       0.0823
     24 N2         -2.7355    2.7457    8.0711 N.am        1 ROC      -0.2772
     25 CB1        -2.7485    4.6777    9.5321 C.3         1 ROC       0.0066
     26 CG1        -2.6577    3.7714   10.7153 C.ar        1 ROC      -0.0408
     27 CD1        -3.8236    3.2647   11.3407 C.ar        1 ROC      -0.0603
     28 CD2        -1.3920    3.3575   11.1974 C.ar        1 ROC      -0.0603
     29 CE1        -3.7188    2.3497   12.4061 C.ar        1 ROC      -0.0686
     30 CE2        -1.2921    2.4490   12.2663 C.ar        1 ROC      -0.0686
     31 CZ         -2.4532    1.9391   12.8645 C.ar        1 ROC      -0.0687
     32 N11        -3.3819    7.4264    6.2960 N.4         1 ROC       0.2562
     33 CM         -2.6355    6.2865    6.9118 C.3         1 ROC      -0.0008
     34 C21        -2.5303    8.6146    5.8997 C.3         1 ROC       0.0688
     35 CC         -1.6569    9.1691    6.9571 C.2         1 ROC       0.2251
     36 O3         -1.9699   10.2024    7.5200 O.2         1 ROC      -0.3909
     37 C31        -3.4001    9.6748    5.1297 C.3         1 ROC       0.0113
     38 C3A        -4.8350    9.9706    5.6872 C.3         1 ROC      -0.0261
     39 C41        -4.8959   11.0800    6.7857 C.3         1 ROC      -0.0494
     40 C51        -6.3379   11.3289    7.2979 C.3         1 ROC      -0.0528
     41 C61        -6.9736   10.0200    7.8285 C.3         1 ROC      -0.0526
     42 C71        -6.9567    8.9093    6.7503 C.3         1 ROC      -0.0451
     43 C7A        -5.5407    8.6541    6.1463 C.3         1 ROC       0.0024
     44 C81        -4.5997    7.8377    7.0744 C.3         1 ROC      -0.0266
     45 N3         -0.4980    8.5774    7.2488 N.am        1 ROC      -0.2771
     46 CD          0.5195    8.8640    8.2465 C.3         1 ROC       0.0448
     47 C11         1.8177    9.2424    7.4742 C.3         1 ROC      -0.0396
     48 C22         0.7389    7.5272    9.0213 C.3         1 ROC      -0.0396
     49 C32         0.2099    9.9854    9.2914 C.3         1 ROC      -0.0396
     50 H1         -5.8024   -1.3528    9.8307 H           1 ROC       0.0729
     51 H2         -7.1946   -2.7112   11.2170 H           1 ROC       0.0774
     52 H3         -7.4625   -4.1706   13.2738 H           1 ROC       0.0657
     53 H4         -6.4883   -5.1343   15.2619 H           1 ROC       0.0652
     54 H5         -4.1657   -4.6875   15.8326 H           1 ROC       0.0657
     55 H6         -2.8118   -3.2766   14.4068 H           1 ROC       0.0653
     56 H7         -4.3476   -0.6001    8.7101 H           1 ROC       0.1882
     57 H8         -1.6650    0.5524    8.5481 H           1 ROC       0.0826
     58 H9         -3.2553   -0.5033    6.1557 H           1 ROC       0.0551
     59 H10        -2.3292   -1.6002    7.1542 H           1 ROC       0.0551
     60 H11         0.7720   -0.5477    5.9507 H           1 ROC       0.1814
     61 H12         0.0257   -1.4131    7.1770 H           1 ROC       0.1814
     62 H13        -4.3871    5.0551    6.6388 H           1 ROC       0.0672
     63 H14        -1.9807    3.7877    6.0635 H           1 ROC       0.2101
     64 H15        -4.4223    3.8661    8.4948 H           1 ROC       0.0606
     65 H16        -1.7837    2.7088    8.2484 H           1 ROC       0.1857
     66 H17        -3.3366    5.5544    9.8232 H           1 ROC       0.0449
     67 H18        -1.7431    5.0201    9.2832 H           1 ROC       0.0449
     68 H19        -4.7489    3.5473   11.0155 H           1 ROC       0.0557
     69 H20        -0.5317    3.6960   10.7650 H           1 ROC       0.0557
     70 H21        -4.5663    1.9771   12.8402 H           1 ROC       0.0599
     71 H22        -0.3693    2.1598   12.5994 H           1 ROC       0.0599
     72 H23        -2.3752    1.2681   13.6317 H           1 ROC       0.0559
     73 H24        -3.7417    7.0552    5.4111 H           1 ROC       0.2057
     74 H25        -1.6897    6.1653    6.3909 H           1 ROC       0.0841
     75 H26        -2.3801    6.6236    7.9143 H           1 ROC       0.0841
     76 H27        -1.8401    8.2422    5.1341 H           1 ROC       0.1100
     77 H28        -3.5434    9.2819    4.1176 H           1 ROC       0.0348
     78 H29        -2.8459   10.6068    5.0110 H           1 ROC       0.0348
     79 H30        -5.4157   10.3656    4.8439 H           1 ROC       0.0309
     80 H31        -4.4927   12.0147    6.3884 H           1 ROC       0.0268
     81 H32        -4.2996   10.8007    7.6513 H           1 ROC       0.0268
     82 H33        -6.9526   11.7349    6.4890 H           1 ROC       0.0265
     83 H34        -6.3146   12.0666    8.1052 H           1 ROC       0.0265
     84 H35        -8.0052   10.2145    8.1356 H           1 ROC       0.0265
     85 H36        -6.4238    9.6797    8.7094 H           1 ROC       0.0265
     86 H37        -7.6362    9.2034    5.9442 H           1 ROC       0.0270
     87 H38        -7.3538    7.9874    7.1829 H           1 ROC       0.0270
     88 H39        -5.7050    8.0391    5.2538 H           1 ROC       0.0355
     89 H40        -4.3153    8.4133    7.9585 H           1 ROC       0.0818
     90 H41        -5.1580    6.9746    7.4368 H           1 ROC       0.0818
     91 H42        -0.2950    7.8000    6.7035 H           1 ROC       0.1859
     92 H43         2.6625    9.3638    8.1584 H           1 ROC       0.0254
     93 H44         1.6797   10.1837    6.9368 H           1 ROC       0.0254
     94 H45         2.0793    8.4732    6.7448 H           1 ROC       0.0254
     95 H46         1.5563    7.6207    9.7427 H           1 ROC       0.0254
     96 H47         0.9853    6.7151    8.3367 H           1 ROC       0.0254
     97 H48        -0.1670    7.2502    9.5654 H           1 ROC       0.0254
     98 H49         1.0140   10.0558   10.0360 H           1 ROC       0.0254
     99 H50        -0.7180    9.7739    9.8213 H           1 ROC       0.0254
    100 H51         0.1272   10.9590    8.8081 H           1 ROC       0.0254
@<TRIPOS>BOND
     1     1     2   2
     2     1     4   1
     3    13     1  am
     4     4     3  ar
     5     3    12  ar
     6     4     5  ar
     7     5     6  ar
     8     6    11  ar
     9     7     8  ar
    10    11     7  ar
    11     9     8  ar
    12    10     9  ar
    13    12    10  ar
    14    12    11  ar
    15    14    13   1
    16    15    14   1
    17    14    17   1
    18    15    16   2
    19    24    15  am
    20    17    18   1
    21    18    19   2
    22    18    20  am
    23    21    22   1
    24    23    21   1
    25    21    33   1
    26    23    24   1
    27    23    25   1
    28    25    26   1
    29    26    27  ar
    30    26    28  ar
    31    27    29  ar
    32    28    30  ar
    33    29    31  ar
    34    30    31  ar
    35    33    32   1
    36    32    34   1
    37    32    44   1
    38    34    35   1
    39    34    37   1
    40    35    36   2
    41    35    45  am
    42    37    38   1
    43    38    39   1
    44    38    43   1
    45    39    40   1
    46    40    41   1
    47    41    42   1
    48    42    43   1
    49    43    44   1
    50    45    46   1
    51    46    47   1
    52    46    48   1
    53    46    49   1
    54     5    50   1
    55     6    51   1
    56     7    52   1
    57     8    53   1
    58     9    54   1
    59    10    55   1
    60    13    56   1
    61    14    57   1
    62    17    58   1
    63    17    59   1
    64    20    60   1
    65    20    61   1
    66    21    62   1
    67    22    63   1
    68    23    64   1
    69    24    65   1
    70    25    66   1
    71    25    67   1
    72    27    68   1
    73    28    69   1
    74    29    70   1
    75    30    71   1
    76    31    72   1
    77    32    73   1
    78    33    74   1
    79    33    75   1
    80    34    76   1
    81    37    77   1
    82    37    78   1
    83    38    79   1
    84    39    80   1
    85    39    81   1
    86    40    82   1
    87    40    83   1
    88    41    84   1
    89    41    85   1
    90    42    86   1
    91    42    87   1
    92    43    88   1
    93    44    89   1
    94    44    90   1
    95    45    91   1
    96    47    92   1
    97    47    93   1
    98    47    94   1
    99    48    95   1
   100    48    96   1
   101    48    97   1
   102    49    98   1
   103    49    99   1
   104    49   100   1
@<TRIPOS>SUBSTRUCTURE
     1  ROC      1

