@<TRIPOS>MOLECULE
3pww_ligand_035
   100   104
SMALL
GAST_HUCK
****
This file was generated by PARSER (from files_GN.cpp)

@<TRIPOS>ATOM
      1 C          -4.1034    2.7005    6.2016 C.2         1 ROC       0.2293
      2 O          -5.2298    2.2666    5.9857 O.2         1 ROC      -0.3762
      3 N1         -4.8715    4.8509    5.5320 N.ar        1 ROC      -0.2737
      4 C2         -3.8608    4.0617    6.0030 C.ar        1 ROC       0.1219
      5 C3         -2.6428    4.7023    6.3336 C.ar        1 ROC      -0.0136
      6 C4         -2.5185    6.0989    6.2026 C.ar        1 ROC      -0.0314
      7 C5         -3.5347    8.2800    5.6452 C.ar        1 ROC      -0.0444
      8 C6         -4.6561    9.0152    5.2197 C.ar        1 ROC      -0.0546
      9 C7         -5.8479    8.3472    4.8782 C.ar        1 ROC      -0.0545
     10 C8         -5.9128    6.9445    4.9454 C.ar        1 ROC      -0.0370
     11 C4A        -3.6022    6.8722    5.7444 C.ar        1 ROC       0.0097
     12 C8A        -4.7998    6.2006    5.3889 C.ar        1 ROC       0.0527
     13 N          -3.1754    1.8603    6.6634 N.am        1 ROC      -0.2600
     14 CA         -3.3732    0.4844    7.0518 C.3         1 ROC       0.1473
     15 C1         -4.1788    0.3746    8.2698 C.2         1 ROC       0.2045
     16 O1         -4.1933    1.3035    9.0761 O.2         1 ROC      -0.3943
     17 CB         -2.0234   -0.2658    7.2738 C.3         1 ROC       0.0773
     18 CG         -1.0383   -0.2009    6.2116 C.2         1 ROC       0.1780
     19 OD1        -1.1685    0.5169    5.2329 O.2         1 ROC      -0.3970
     20 ND2         0.0669   -0.9012    6.3170 N.am        1 ROC      -0.3007
     21 C9         -7.1618   -0.1935    9.2743 C.3         1 ROC       0.1194
     22 O2         -7.4757   -0.2657    7.8819 O.3         1 ROC      -0.3840
     23 CA1        -5.8359   -0.9968    9.5456 C.3         1 ROC       0.0823
     24 N2         -4.8649   -0.7258    8.5091 N.am        1 ROC      -0.2772
     25 CB1        -5.2507   -0.9584   11.0071 C.3         1 ROC       0.0066
     26 CG1        -5.7179   -2.0390   11.9315 C.ar        1 ROC      -0.0408
     27 CD1        -7.0994   -2.2855   12.1341 C.ar        1 ROC      -0.0603
     28 CD2        -4.7877   -2.8136   12.6722 C.ar        1 ROC      -0.0603
     29 CE1        -7.5301   -3.3102   12.9954 C.ar        1 ROC      -0.0686
     30 CE2        -5.2259   -3.8088   13.5671 C.ar        1 ROC      -0.0686
     31 CZ         -6.5990   -4.0727   13.7168 C.ar        1 ROC      -0.0687
     32 N11        -8.2695    2.2271    9.2319 N.4         1 ROC       0.2562
     33 CM         -7.2520    1.2772    9.7972 C.3         1 ROC      -0.0008
     34 C21        -9.7230    1.8604    9.4033 C.3         1 ROC       0.0688
     35 CC        -10.1516    0.5893    8.8073 C.2         1 ROC       0.2251
     36 O3        -10.1307    0.4573    7.5910 O.2         1 ROC      -0.3909
     37 C31       -10.6525    3.0661    9.0243 C.3         1 ROC       0.0113
     38 C3A       -10.2511    3.9165    7.7725 C.3         1 ROC      -0.0261
     39 C41       -10.8311    3.3946    6.4190 C.3         1 ROC      -0.0494
     40 C51       -10.3910    4.2638    5.2097 C.3         1 ROC      -0.0528
     41 C61        -8.8505    4.3804    5.1357 C.3         1 ROC      -0.0526
     42 C71        -8.2745    4.9501    6.4558 C.3         1 ROC      -0.0451
     43 C7A        -8.7066    4.1484    7.7217 C.3         1 ROC       0.0024
     44 C81        -7.9244    2.8165    7.9022 C.3         1 ROC      -0.0266
     45 N3        -10.5497   -0.4214    9.5729 N.am        1 ROC      -0.2771
     46 CD        -11.0177   -1.7376    9.1945 C.3         1 ROC       0.0448
     47 C11       -11.4382   -2.4489   10.5158 C.3         1 ROC      -0.0396
     48 C22        -9.8997   -2.5904    8.5156 C.3         1 ROC      -0.0396
     49 C32       -12.2632   -1.6340    8.2622 C.3         1 ROC      -0.0396
     50 H1         -1.8494    4.1776    6.7026 H           1 ROC       0.0729
     51 H2         -1.6453    6.5530    6.4717 H           1 ROC       0.0774
     52 H3         -2.6782    8.7798    5.8968 H           1 ROC       0.0657
     53 H4         -4.6109   10.0353    5.1715 H           1 ROC       0.0652
     54 H5         -6.6618    8.8835    4.5720 H           1 ROC       0.0657
     55 H6         -6.7781    6.4715    4.6791 H           1 ROC       0.0653
     56 H7         -2.2812    2.2064    6.7759 H           1 ROC       0.1882
     57 H8         -3.9004   -0.0277    6.2346 H           1 ROC       0.0826
     58 H9         -2.2565   -1.3216    7.4307 H           1 ROC       0.0551
     59 H10        -1.5564    0.1109    8.1871 H           1 ROC       0.0551
     60 H11         0.7653   -0.8155    5.6485 H           1 ROC       0.1814
     61 H12         0.1936   -1.4968    7.0738 H           1 ROC       0.1814
     62 H13        -7.9638   -0.7346    9.7705 H           1 ROC       0.0672
     63 H14        -7.4596   -1.2228    7.6522 H           1 ROC       0.2101
     64 H15        -6.0903   -2.0433    9.3474 H           1 ROC       0.0606
     65 H16        -4.7210   -1.4551    7.8761 H           1 ROC       0.1857
     66 H17        -5.4621   -0.0021   11.4823 H           1 ROC       0.0449
     67 H18        -4.1616   -1.0044   10.9347 H           1 ROC       0.0449
     68 H19        -7.8065   -1.7209   11.6574 H           1 ROC       0.0557
     69 H20        -3.7785   -2.6431   12.5766 H           1 ROC       0.0557
     70 H21        -8.5291   -3.4930   13.0954 H           1 ROC       0.0599
     71 H22        -4.5483   -4.3464   14.1084 H           1 ROC       0.0599
     72 H23        -6.9112   -4.8067   14.3511 H           1 ROC       0.0559
     73 H24        -8.1466    3.0393    9.8437 H           1 ROC       0.2057
     74 H25        -6.2814    1.7499    9.6759 H           1 ROC       0.0841
     75 H26        -7.4377    1.2250   10.8808 H           1 ROC       0.0841
     76 H27        -9.8520    1.7508   10.4890 H           1 ROC       0.1100
     77 H28       -10.6405    3.7508    9.8769 H           1 ROC       0.0348
     78 H29       -11.6872    2.7288    8.9291 H           1 ROC       0.0348
     79 H30       -10.7122    4.9002    7.9137 H           1 ROC       0.0309
     80 H31       -11.9274    3.3897    6.4647 H           1 ROC       0.0268
     81 H32       -10.5017    2.3783    6.2310 H           1 ROC       0.0268
     82 H33       -10.8242    5.2615    5.3041 H           1 ROC       0.0265
     83 H34       -10.7653    3.8232    4.2848 H           1 ROC       0.0265
     84 H35        -8.5716    5.0372    4.3102 H           1 ROC       0.0265
     85 H36        -8.4157    3.3983    4.9305 H           1 ROC       0.0265
     86 H37        -8.6045    5.9867    6.5603 H           1 ROC       0.0270
     87 H38        -7.1855    4.9719    6.3920 H           1 ROC       0.0270
     88 H39        -8.4424    4.7782    8.5764 H           1 ROC       0.0355
     89 H40        -8.1458    2.1351    7.0846 H           1 ROC       0.0818
     90 H41        -6.8539    3.0388    7.8631 H           1 ROC       0.0818
     91 H42       -10.5239   -0.2499   10.5294 H           1 ROC       0.1859
     92 H43       -11.8465   -3.4403   10.3101 H           1 ROC       0.0254
     93 H44       -12.1972   -1.8673   11.0440 H           1 ROC       0.0254
     94 H45       -10.5801   -2.5703   11.1802 H           1 ROC       0.0254
     95 H46       -10.2759   -3.5815    8.2508 H           1 ROC       0.0254
     96 H47        -9.0519   -2.7266    9.1894 H           1 ROC       0.0254
     97 H48        -9.5370   -2.1168    7.6027 H           1 ROC       0.0254
     98 H49       -12.7092   -2.6174    8.0980 H           1 ROC       0.0254
     99 H50       -11.9899   -1.2306    7.2871 H           1 ROC       0.0254
    100 H51       -13.0216   -0.9811    8.7010 H           1 ROC       0.0254
@<TRIPOS>BOND
     1     1     2   2
     2     1     4   1
     3    13     1  am
     4     4     3  ar
     5     3    12  ar
     6     4     5  ar
     7     5     6  ar
     8     6    11  ar
     9     7     8  ar
    10    11     7  ar
    11     9     8  ar
    12    10     9  ar
    13    12    10  ar
    14    12    11  ar
    15    14    13   1
    16    15    14   1
    17    14    17   1
    18    15    16   2
    19    24    15  am
    20    17    18   1
    21    18    19   2
    22    18    20  am
    23    21    22   1
    24    23    21   1
    25    21    33   1
    26    23    24   1
    27    23    25   1
    28    25    26   1
    29    26    27  ar
    30    26    28  ar
    31    27    29  ar
    32    28    30  ar
    33    29    31  ar
    34    30    31  ar
    35    33    32   1
    36    32    34   1
    37    32    44   1
    38    34    35   1
    39    34    37   1
    40    35    36   2
    41    35    45  am
    42    37    38   1
    43    38    39   1
    44    38    43   1
    45    39    40   1
    46    40    41   1
    47    41    42   1
    48    42    43   1
    49    43    44   1
    50    45    46   1
    51    46    47   1
    52    46    48   1
    53    46    49   1
    54     5    50   1
    55     6    51   1
    56     7    52   1
    57     8    53   1
    58     9    54   1
    59    10    55   1
    60    13    56   1
    61    14    57   1
    62    17    58   1
    63    17    59   1
    64    20    60   1
    65    20    61   1
    66    21    62   1
    67    22    63   1
    68    23    64   1
    69    24    65   1
    70    25    66   1
    71    25    67   1
    72    27    68   1
    73    28    69   1
    74    29    70   1
    75    30    71   1
    76    31    72   1
    77    32    73   1
    78    33    74   1
    79    33    75   1
    80    34    76   1
    81    37    77   1
    82    37    78   1
    83    38    79   1
    84    39    80   1
    85    39    81   1
    86    40    82   1
    87    40    83   1
    88    41    84   1
    89    41    85   1
    90    42    86   1
    91    42    87   1
    92    43    88   1
    93    44    89   1
    94    44    90   1
    95    45    91   1
    96    47    92   1
    97    47    93   1
    98    47    94   1
    99    48    95   1
   100    48    96   1
   101    48    97   1
   102    49    98   1
   103    49    99   1
   104    49   100   1
@<TRIPOS>SUBSTRUCTURE
     1  ROC      1

