@<TRIPOS>MOLECULE
3pww_ligand_008
   100   104
SMALL
GAST_HUCK
****
This file was generated by PARSER (from files_GN.cpp)

@<TRIPOS>ATOM
      1 C          -1.2727    8.9529    8.5057 C.2         1 ROC       0.2293
      2 O          -1.7881    8.5555    7.4672 O.2         1 ROC      -0.3762
      3 N1         -2.2824   11.0790    8.1831 N.ar        1 ROC      -0.2737
      4 C2         -1.3333   10.3145    8.7919 C.ar        1 ROC       0.1219
      5 C3         -0.4410   10.9508    9.6887 C.ar        1 ROC      -0.0136
      6 C4         -0.5372   12.3351    9.9068 C.ar        1 ROC      -0.0314
      7 C5         -1.6431   14.4885    9.4253 C.ar        1 ROC      -0.0444
      8 C6         -2.6545   15.2030    8.7517 C.ar        1 ROC      -0.0546
      9 C7         -3.5541   14.5270    7.9080 C.ar        1 ROC      -0.0545
     10 C8         -3.4402   13.1369    7.7165 C.ar        1 ROC      -0.0370
     11 C4A        -1.5246   13.0943    9.2465 C.ar        1 ROC       0.0097
     12 C8A        -2.4225   12.4188    8.3759 C.ar        1 ROC       0.0527
     13 N          -0.7025    8.0813    9.3364 N.am        1 ROC      -0.2600
     14 CA         -0.6040    6.6602    9.1394 C.3         1 ROC       0.1473
     15 C1         -1.9460    6.0710    9.2187 C.2         1 ROC       0.2045
     16 O1         -2.4486    5.8917   10.3235 O.2         1 ROC      -0.3943
     17 CB          0.4223    6.0277   10.1409 C.3         1 ROC       0.0773
     18 CG          1.2665    4.9976    9.5544 C.2         1 ROC       0.1780
     19 OD1         0.7749    4.0545    8.9561 O.2         1 ROC      -0.3970
     20 ND2         2.5815    5.0567    9.6056 N.am        1 ROC      -0.3007
     21 C9         -3.8485    3.6858    7.9639 C.3         1 ROC       0.1194
     22 O2         -3.0666    3.3030    6.8172 O.3         1 ROC      -0.3840
     23 CA1        -3.9612    5.2491    7.9969 C.3         1 ROC       0.0823
     24 N2         -2.6190    5.7703    8.1109 N.am        1 ROC      -0.2772
     25 CB1        -4.6543    5.8548    6.7300 C.3         1 ROC       0.0066
     26 CG1        -4.4614    7.3145    6.4874 C.ar        1 ROC      -0.0408
     27 CD1        -3.7405    7.7768    5.3552 C.ar        1 ROC      -0.0603
     28 CD2        -5.0336    8.2793    7.3502 C.ar        1 ROC      -0.0603
     29 CE1        -3.5945    9.1526    5.0963 C.ar        1 ROC      -0.0686
     30 CE2        -4.8900    9.6584    7.0909 C.ar        1 ROC      -0.0686
     31 CZ         -4.1650   10.0957    5.9674 C.ar        1 ROC      -0.0687
     32 N11        -5.9363    2.4404    9.2027 N.4         1 ROC       0.2562
     33 CM         -5.1585    2.8162    7.9452 C.3         1 ROC      -0.0008
     34 C21        -5.1531    2.3074   10.4868 C.3         1 ROC       0.0688
     35 CC         -3.9327    1.5049   10.4308 C.2         1 ROC       0.2251
     36 O3         -3.8347    0.5870    9.6300 O.2         1 ROC      -0.3909
     37 C31        -6.0619    1.8883   11.6968 C.3         1 ROC       0.0113
     38 C3A        -6.9676    0.6449   11.4400 C.3         1 ROC      -0.0261
     39 C41        -6.2024   -0.7186   11.4799 C.3         1 ROC      -0.0494
     40 C51        -7.1276   -1.9252   11.1903 C.3         1 ROC      -0.0528
     41 C61        -7.8854   -1.7461    9.8508 C.3         1 ROC      -0.0526
     42 C71        -8.6549   -0.3961    9.8028 C.3         1 ROC      -0.0451
     43 C7A        -7.7731    0.8539   10.1201 C.3         1 ROC       0.0024
     44 C81        -6.8473    1.2676    8.9349 C.3         1 ROC      -0.0266
     45 N3         -2.8812    1.9035   11.1380 N.am        1 ROC      -0.2771
     46 CD         -1.5223    1.4279   11.0771 C.3         1 ROC       0.0448
     47 C11        -0.7366    2.3001   12.1055 C.3         1 ROC      -0.0396
     48 C22        -0.8908    1.6438    9.6671 C.3         1 ROC      -0.0396
     49 C32        -1.4510   -0.0797   11.4591 C.3         1 ROC      -0.0396
     50 H1          0.2967   10.4263   10.1626 H           1 ROC       0.0729
     51 H2          0.1231   12.7842   10.5455 H           1 ROC       0.0774
     52 H3         -1.0026   14.9900   10.0438 H           1 ROC       0.0657
     53 H4         -2.7343   16.2137    8.8802 H           1 ROC       0.0652
     54 H5         -4.2926   15.0454    7.4312 H           1 ROC       0.0657
     55 H6         -4.0996   12.6519    7.0974 H           1 ROC       0.0653
     56 H7         -0.3101    8.4359   10.1490 H           1 ROC       0.1882
     57 H8         -0.2005    6.5229    8.1323 H           1 ROC       0.0826
     58 H9         -0.0948    5.5981   11.0033 H           1 ROC       0.0551
     59 H10         1.0711    6.8141   10.5321 H           1 ROC       0.0551
     60 H11         3.1215    4.3836    9.1586 H           1 ROC       0.1814
     61 H12         3.0234    5.7842   10.0703 H           1 ROC       0.1814
     62 H13        -3.2625    3.3785    8.8285 H           1 ROC       0.0672
     63 H14        -2.1646    3.1070    7.1444 H           1 ROC       0.2101
     64 H15        -4.5571    5.5164    8.8754 H           1 ROC       0.0606
     65 H16        -2.1394    5.8856    7.2736 H           1 ROC       0.1857
     66 H17        -5.7259    5.6734    6.7984 H           1 ROC       0.0449
     67 H18        -4.3028    5.3023    5.8576 H           1 ROC       0.0449
     68 H19        -3.3255    7.1132    4.6962 H           1 ROC       0.0557
     69 H20        -5.5827    7.9863    8.1620 H           1 ROC       0.0557
     70 H21        -3.0693    9.4730    4.2782 H           1 ROC       0.0599
     71 H22        -5.3160   10.3478    7.7193 H           1 ROC       0.0599
     72 H23        -4.0623   11.0972    5.7769 H           1 ROC       0.0559
     73 H24        -6.5603    3.2292    9.3858 H           1 ROC       0.2057
     74 H25        -4.8588    1.8700    7.4718 H           1 ROC       0.0841
     75 H26        -5.8554    3.2834    7.2438 H           1 ROC       0.0841
     76 H27        -4.8395    3.3327   10.7093 H           1 ROC       0.1100
     77 H28        -6.7245    2.7294   11.9335 H           1 ROC       0.0348
     78 H29        -5.4617    1.7188   12.5969 H           1 ROC       0.0348
     79 H30        -7.6919    0.6038   12.2640 H           1 ROC       0.0309
     80 H31        -5.7417   -0.8509   12.4640 H           1 ROC       0.0268
     81 H32        -5.4060   -0.7375   10.7408 H           1 ROC       0.0268
     82 H33        -7.8472   -2.0388   12.0091 H           1 ROC       0.0265
     83 H34        -6.5255   -2.8383   11.1487 H           1 ROC       0.0265
     84 H35        -8.5912   -2.5735    9.7297 H           1 ROC       0.0265
     85 H36        -7.1736   -1.8006    9.0251 H           1 ROC       0.0265
     86 H37        -9.4707   -0.4511   10.5330 H           1 ROC       0.0270
     87 H38        -9.1155   -0.2904    8.8168 H           1 ROC       0.0270
     88 H39        -8.4625    1.6879   10.2839 H           1 ROC       0.0355
     89 H40        -6.2523    0.4034    8.6448 H           1 ROC       0.0818
     90 H41        -7.4936    1.5221    8.0917 H           1 ROC       0.0818
     91 H42        -3.0363    2.6613   11.7287 H           1 ROC       0.1859
     92 H43         0.3260    2.0491   12.1073 H           1 ROC       0.0254
     93 H44        -1.1278    2.1563   13.1158 H           1 ROC       0.0254
     94 H45        -0.8292    3.3604   11.8535 H           1 ROC       0.0254
     95 H46         0.1945    1.5231    9.6941 H           1 ROC       0.0254
     96 H47        -1.1153    2.6476    9.3115 H           1 ROC       0.0254
     97 H48        -1.2809    0.9289    8.9408 H           1 ROC       0.0254
     98 H49        -0.4189   -0.4332   11.4353 H           1 ROC       0.0254
     99 H50        -2.0256   -0.6878   10.7589 H           1 ROC       0.0254
    100 H51        -1.8601   -0.2387   12.4580 H           1 ROC       0.0254
@<TRIPOS>BOND
     1     1     2   2
     2     1     4   1
     3    13     1  am
     4     4     3  ar
     5     3    12  ar
     6     4     5  ar
     7     5     6  ar
     8     6    11  ar
     9     7     8  ar
    10    11     7  ar
    11     9     8  ar
    12    10     9  ar
    13    12    10  ar
    14    12    11  ar
    15    14    13   1
    16    15    14   1
    17    14    17   1
    18    15    16   2
    19    24    15  am
    20    17    18   1
    21    18    19   2
    22    18    20  am
    23    21    22   1
    24    23    21   1
    25    21    33   1
    26    23    24   1
    27    23    25   1
    28    25    26   1
    29    26    27  ar
    30    26    28  ar
    31    27    29  ar
    32    28    30  ar
    33    29    31  ar
    34    30    31  ar
    35    33    32   1
    36    32    34   1
    37    32    44   1
    38    34    35   1
    39    34    37   1
    40    35    36   2
    41    35    45  am
    42    37    38   1
    43    38    39   1
    44    38    43   1
    45    39    40   1
    46    40    41   1
    47    41    42   1
    48    42    43   1
    49    43    44   1
    50    45    46   1
    51    46    47   1
    52    46    48   1
    53    46    49   1
    54     5    50   1
    55     6    51   1
    56     7    52   1
    57     8    53   1
    58     9    54   1
    59    10    55   1
    60    13    56   1
    61    14    57   1
    62    17    58   1
    63    17    59   1
    64    20    60   1
    65    20    61   1
    66    21    62   1
    67    22    63   1
    68    23    64   1
    69    24    65   1
    70    25    66   1
    71    25    67   1
    72    27    68   1
    73    28    69   1
    74    29    70   1
    75    30    71   1
    76    31    72   1
    77    32    73   1
    78    33    74   1
    79    33    75   1
    80    34    76   1
    81    37    77   1
    82    37    78   1
    83    38    79   1
    84    39    80   1
    85    39    81   1
    86    40    82   1
    87    40    83   1
    88    41    84   1
    89    41    85   1
    90    42    86   1
    91    42    87   1
    92    43    88   1
    93    44    89   1
    94    44    90   1
    95    45    91   1
    96    47    92   1
    97    47    93   1
    98    47    94   1
    99    48    95   1
   100    48    96   1
   101    48    97   1
   102    49    98   1
   103    49    99   1
   104    49   100   1
@<TRIPOS>SUBSTRUCTURE
     1  ROC      1

