@<TRIPOS>MOLECULE
3pww_ligand_043
   100   104
SMALL
GAST_HUCK
****
This file was generated by PARSER (from files_GN.cpp)

@<TRIPOS>ATOM
      1 C          -3.1389   -0.9428   10.2541 C.2         1 ROC       0.2293
      2 O          -2.0399   -0.6711   10.7306 O.2         1 ROC      -0.3762
      3 N1         -3.6223   -2.2449   12.1915 N.ar        1 ROC      -0.2737
      4 C2         -4.0459   -1.6772   11.0220 C.ar        1 ROC       0.1219
      5 C3         -5.4050   -1.8560   10.6670 C.ar        1 ROC      -0.0136
      6 C4         -6.2643   -2.6003   11.4943 C.ar        1 ROC      -0.0314
      7 C5         -6.6024   -3.9394   13.5385 C.ar        1 ROC      -0.0444
      8 C6         -6.0727   -4.4976   14.7131 C.ar        1 ROC      -0.0546
      9 C7         -4.7193   -4.2983   15.0461 C.ar        1 ROC      -0.0545
     10 C8         -3.8883   -3.5309   14.2044 C.ar        1 ROC      -0.0370
     11 C4A        -5.7761   -3.1781   12.6834 C.ar        1 ROC       0.0097
     12 C8A        -4.4130   -2.9744   13.0189 C.ar        1 ROC       0.0527
     13 N          -3.4448   -0.5274    9.0305 N.am        1 ROC      -0.2600
     14 CA         -2.6942    0.3259    8.1423 C.3         1 ROC       0.1473
     15 C1         -3.4110    1.5998    8.0461 C.2         1 ROC       0.2045
     16 O1         -4.6318    1.5788    7.9448 O.2         1 ROC      -0.3943
     17 CB         -2.5483   -0.3913    6.7596 C.3         1 ROC       0.0773
     18 CG         -1.3245   -0.0668    6.0492 C.2         1 ROC       0.1780
     19 OD1        -1.3436    0.6695    5.0720 O.2         1 ROC      -0.3970
     20 ND2        -0.1753   -0.6021    6.4031 N.am        1 ROC      -0.3007
     21 C9         -3.3435    5.0425    7.2176 C.3         1 ROC       0.1194
     22 O2         -4.1557    6.1610    7.5848 O.3         1 ROC      -0.3840
     23 CA1        -3.3637    4.0434    8.4290 C.3         1 ROC       0.0823
     24 N2         -2.7661    2.7644    8.1320 N.am        1 ROC      -0.2772
     25 CB1        -2.6169    4.6576    9.6626 C.3         1 ROC       0.0066
     26 CG1        -2.4112    3.7235   10.8033 C.ar        1 ROC      -0.0408
     27 CD1        -1.1225    3.2157   11.0967 C.ar        1 ROC      -0.0603
     28 CD2        -3.4983    3.3274   11.6180 C.ar        1 ROC      -0.0603
     29 CE1        -0.9229    2.3413   12.1743 C.ar        1 ROC      -0.0686
     30 CE2        -3.2977    2.4484   12.6980 C.ar        1 ROC      -0.0686
     31 CZ         -2.0120    1.9520   12.9779 C.ar        1 ROC      -0.0687
     32 N11        -5.1787    4.7343    5.2929 N.4         1 ROC       0.2562
     33 CM         -3.7775    4.5165    5.8007 C.3         1 ROC      -0.0008
     34 C21        -5.4863    6.0019    4.5179 C.3         1 ROC       0.0688
     35 CC         -5.2225    7.3125    5.1445 C.2         1 ROC       0.2251
     36 O3         -6.1408    8.1129    5.2953 O.2         1 ROC      -0.3909
     37 C31        -6.9124    5.8764    3.8551 C.3         1 ROC       0.0113
     38 C3A        -8.0487    5.3454    4.7851 C.3         1 ROC      -0.0261
     39 C41        -8.6337    6.3791    5.8053 C.3         1 ROC      -0.0494
     40 C51        -9.7600    5.7668    6.6792 C.3         1 ROC      -0.0528
     41 C61        -9.2998    4.4744    7.3960 C.3         1 ROC      -0.0526
     42 C71        -8.7037    3.4453    6.3999 C.3         1 ROC      -0.0451
     43 C7A        -7.5797    4.0447    5.4984 C.3         1 ROC       0.0024
     44 C81        -6.2393    4.2908    6.2471 C.3         1 ROC      -0.0266
     45 N3         -3.9751    7.7069    5.3840 N.am        1 ROC      -0.2771
     46 CD         -3.4859    8.9772    5.8881 C.3         1 ROC       0.0448
     47 C11        -1.9763    8.7682    6.2244 C.3         1 ROC      -0.0396
     48 C22        -4.2117    9.4680    7.1862 C.3         1 ROC      -0.0396
     49 C32        -3.6025   10.0679    4.7785 C.3         1 ROC      -0.0396
     50 H1         -5.7960   -1.4431    9.8173 H           1 ROC       0.0729
     51 H2         -7.2430   -2.7124   11.2249 H           1 ROC       0.0774
     52 H3         -7.5874   -4.0947   13.3083 H           1 ROC       0.0657
     53 H4         -6.6727   -5.0594   15.3242 H           1 ROC       0.0652
     54 H5         -4.3324   -4.7108   15.8976 H           1 ROC       0.0657
     55 H6         -2.9087   -3.3896   14.4566 H           1 ROC       0.0653
     56 H7         -4.3095   -0.7991    8.6856 H           1 ROC       0.1882
     57 H8         -1.6958    0.5054    8.5611 H           1 ROC       0.0826
     58 H9         -3.4157   -0.1700    6.1249 H           1 ROC       0.0551
     59 H10        -2.5507   -1.4746    6.9067 H           1 ROC       0.0551
     60 H11         0.6305   -0.4046    5.8940 H           1 ROC       0.1814
     61 H12        -0.1267   -1.2243    7.1535 H           1 ROC       0.1814
     62 H13        -2.3152    5.4091    7.1020 H           1 ROC       0.0672
     63 H14        -3.6903    6.6016    8.3332 H           1 ROC       0.2101
     64 H15        -4.4095    3.9156    8.7277 H           1 ROC       0.0606
     65 H16        -1.7980    2.7318    8.1111 H           1 ROC       0.1857
     66 H17        -3.1764    5.5171   10.0407 H           1 ROC       0.0449
     67 H18        -1.6472    5.0434    9.3330 H           1 ROC       0.0449
     68 H19        -0.3174    3.4785   10.5195 H           1 ROC       0.0557
     69 H20        -4.4392    3.6866   11.4355 H           1 ROC       0.0557
     70 H21         0.0151    1.9913   12.3758 H           1 ROC       0.0599
     71 H22        -4.0890    2.1764   13.2825 H           1 ROC       0.0599
     72 H23        -1.8647    1.3172   13.7652 H           1 ROC       0.0559
     73 H24        -5.2406    4.0288    4.5547 H           1 ROC       0.2057
     74 H25        -3.5976    3.4426    5.7661 H           1 ROC       0.0841
     75 H26        -3.0915    4.9285    5.0579 H           1 ROC       0.0841
     76 H27        -4.8007    5.9789    3.6632 H           1 ROC       0.1100
     77 H28        -6.8226    5.1670    3.0303 H           1 ROC       0.0348
     78 H29        -7.2194    6.8209    3.4024 H           1 ROC       0.0348
     79 H30        -8.8826    5.0770    4.1247 H           1 ROC       0.0309
     80 H31        -9.0324    7.2439    5.2657 H           1 ROC       0.0268
     81 H32        -7.8481    6.7440    6.4772 H           1 ROC       0.0268
     82 H33       -10.6259    5.5462    6.0510 H           1 ROC       0.0265
     83 H34       -10.0714    6.4992    7.4304 H           1 ROC       0.0265
     84 H35       -10.1520    4.0224    7.9075 H           1 ROC       0.0265
     85 H36        -8.5508    4.7199    8.1575 H           1 ROC       0.0265
     86 H37        -9.5104    3.0849    5.7545 H           1 ROC       0.0270
     87 H38        -8.3208    2.5843    6.9507 H           1 ROC       0.0270
     88 H39        -7.3779    3.2912    4.7256 H           1 ROC       0.0355
     89 H40        -6.3649    5.0234    7.0427 H           1 ROC       0.0818
     90 H41        -5.9489    3.3469    6.7033 H           1 ROC       0.0818
     91 H42        -3.2919    7.0552    5.1867 H           1 ROC       0.1859
     92 H43        -1.5151    9.6977    6.5659 H           1 ROC       0.0254
     93 H44        -1.4274    8.4186    5.3463 H           1 ROC       0.0254
     94 H45        -1.8606    8.0218    7.0148 H           1 ROC       0.0254
     95 H46        -3.7241   10.3555    7.5947 H           1 ROC       0.0254
     96 H47        -4.2022    8.6980    7.9565 H           1 ROC       0.0254
     97 H48        -5.2509    9.7360    6.9877 H           1 ROC       0.0254
     98 H49        -3.2213   11.0264    5.1415 H           1 ROC       0.0254
     99 H50        -4.6432   10.2090    4.4745 H           1 ROC       0.0254
    100 H51        -3.0229    9.7840    3.8989 H           1 ROC       0.0254
@<TRIPOS>BOND
     1     1     2   2
     2     1     4   1
     3    13     1  am
     4     4     3  ar
     5     3    12  ar
     6     4     5  ar
     7     5     6  ar
     8     6    11  ar
     9     7     8  ar
    10    11     7  ar
    11     9     8  ar
    12    10     9  ar
    13    12    10  ar
    14    12    11  ar
    15    14    13   1
    16    15    14   1
    17    14    17   1
    18    15    16   2
    19    24    15  am
    20    17    18   1
    21    18    19   2
    22    18    20  am
    23    21    22   1
    24    23    21   1
    25    21    33   1
    26    23    24   1
    27    23    25   1
    28    25    26   1
    29    26    27  ar
    30    26    28  ar
    31    27    29  ar
    32    28    30  ar
    33    29    31  ar
    34    30    31  ar
    35    33    32   1
    36    32    34   1
    37    32    44   1
    38    34    35   1
    39    34    37   1
    40    35    36   2
    41    35    45  am
    42    37    38   1
    43    38    39   1
    44    38    43   1
    45    39    40   1
    46    40    41   1
    47    41    42   1
    48    42    43   1
    49    43    44   1
    50    45    46   1
    51    46    47   1
    52    46    48   1
    53    46    49   1
    54     5    50   1
    55     6    51   1
    56     7    52   1
    57     8    53   1
    58     9    54   1
    59    10    55   1
    60    13    56   1
    61    14    57   1
    62    17    58   1
    63    17    59   1
    64    20    60   1
    65    20    61   1
    66    21    62   1
    67    22    63   1
    68    23    64   1
    69    24    65   1
    70    25    66   1
    71    25    67   1
    72    27    68   1
    73    28    69   1
    74    29    70   1
    75    30    71   1
    76    31    72   1
    77    32    73   1
    78    33    74   1
    79    33    75   1
    80    34    76   1
    81    37    77   1
    82    37    78   1
    83    38    79   1
    84    39    80   1
    85    39    81   1
    86    40    82   1
    87    40    83   1
    88    41    84   1
    89    41    85   1
    90    42    86   1
    91    42    87   1
    92    43    88   1
    93    44    89   1
    94    44    90   1
    95    45    91   1
    96    47    92   1
    97    47    93   1
    98    47    94   1
    99    48    95   1
   100    48    96   1
   101    48    97   1
   102    49    98   1
   103    49    99   1
   104    49   100   1
@<TRIPOS>SUBSTRUCTURE
     1  ROC      1

