@<TRIPOS>MOLECULE
3pww_ligand_045
   100   104
SMALL
GAST_HUCK
****
This file was generated by PARSER (from files_GN.cpp)

@<TRIPOS>ATOM
      1 C          -1.6531    6.9038    8.3237 C.2         1 ROC       0.2293
      2 O          -2.6370    6.3753    7.8007 O.2         1 ROC      -0.3762
      3 N1         -2.5852    9.0421    7.8155 N.ar        1 ROC      -0.2737
      4 C2         -1.6115    8.2957    8.4176 C.ar        1 ROC       0.1219
      5 C3         -0.6112    9.0016    9.1371 C.ar        1 ROC      -0.0136
      6 C4         -0.6535   10.4063    9.2258 C.ar        1 ROC      -0.0314
      7 C5         -1.7738   12.5361    8.6584 C.ar        1 ROC      -0.0444
      8 C6         -2.8171   13.2119    7.9993 C.ar        1 ROC      -0.0546
      9 C7         -3.7769   12.4867    7.2649 C.ar        1 ROC      -0.0545
     10 C8         -3.7020   11.0813    7.2018 C.ar        1 ROC      -0.0370
     11 C4A        -1.6864   11.1272    8.5911 C.ar        1 ROC       0.0097
     12 C8A        -2.6637   10.4013    7.8629 C.ar        1 ROC       0.0527
     13 N          -0.6493    6.1363    8.7480 N.am        1 ROC      -0.2600
     14 CA         -0.5813    4.6970    8.7442 C.3         1 ROC       0.1473
     15 C1         -1.5870    4.0893    9.6172 C.2         1 ROC       0.2045
     16 O1         -1.8999    4.6429   10.6643 O.2         1 ROC      -0.3943
     17 CB          0.8686    4.2196    9.0896 C.3         1 ROC       0.0773
     18 CG          1.6240    4.9929   10.0669 C.2         1 ROC       0.1780
     19 OD1         1.0813    5.7264   10.8822 O.2         1 ROC      -0.3970
     20 ND2         2.9374    4.9609   10.0538 N.am        1 ROC      -0.3007
     21 C9         -4.4941    3.1690   10.0563 C.3         1 ROC       0.1194
     22 O2         -5.2905    2.9118   11.2177 O.3         1 ROC      -0.3840
     23 CA1        -3.2227    2.2418    9.9713 C.3         1 ROC       0.0823
     24 N2         -2.1644    2.9377    9.2771 N.am        1 ROC      -0.2772
     25 CB1        -2.7182    1.6081   11.3194 C.3         1 ROC       0.0066
     26 CG1        -3.2479    0.2321   11.5617 C.ar        1 ROC      -0.0408
     27 CD1        -4.6033    0.0199   11.9110 C.ar        1 ROC      -0.0603
     28 CD2        -2.4098   -0.8984   11.3922 C.ar        1 ROC      -0.0603
     29 CE1        -5.1169   -1.2828   12.0472 C.ar        1 ROC      -0.0686
     30 CE2        -2.9158   -2.2017   11.5541 C.ar        1 ROC      -0.0686
     31 CZ         -4.2720   -2.3938   11.8824 C.ar        1 ROC      -0.0687
     32 N11        -6.7736    2.6025    8.8561 N.4         1 ROC       0.2562
     33 CM         -5.3689    3.1495    8.7430 C.3         1 ROC      -0.0008
     34 C21        -6.9354    1.1522    9.2586 C.3         1 ROC       0.0688
     35 CC         -6.4670    0.0814    8.3700 C.2         1 ROC       0.2251
     36 O3         -6.5033   -1.0615    8.8059 O.2         1 ROC      -0.3909
     37 C31        -8.4234    0.9426    9.7032 C.3         1 ROC       0.0113
     38 C3A        -9.4947    1.4129    8.6702 C.3         1 ROC      -0.0261
     39 C41        -9.7060    0.4096    7.4922 C.3         1 ROC      -0.0494
     40 C51       -10.7666    0.9177    6.4820 C.3         1 ROC      -0.0528
     41 C61       -10.4059    2.3254    5.9455 C.3         1 ROC      -0.0526
     42 C71       -10.2071    3.3396    7.1010 C.3         1 ROC      -0.0451
     43 C7A        -9.1820    2.8657    8.1800 C.3         1 ROC       0.0024
     44 C81        -7.6943    3.0227    7.7406 C.3         1 ROC      -0.0266
     45 N3         -5.9513    0.3261    7.1697 N.am        1 ROC      -0.2771
     46 CD         -5.4403   -0.5467    6.1402 C.3         1 ROC       0.0448
     47 C11        -6.1063   -0.0611    4.8147 C.3         1 ROC      -0.0396
     48 C22        -5.7199   -2.0778    6.2965 C.3         1 ROC      -0.0396
     49 C32        -3.9025   -0.2991    6.0986 C.3         1 ROC      -0.0396
     50 H1          0.1452    8.5125    9.6198 H           1 ROC       0.0729
     51 H2          0.0699   10.8963    9.7604 H           1 ROC       0.0774
     52 H3         -1.0828   13.0773    9.1855 H           1 ROC       0.0657
     53 H4         -2.8753   14.2317    8.0442 H           1 ROC       0.0652
     54 H5         -4.5292   12.9811    6.7848 H           1 ROC       0.0657
     55 H6         -4.4047   10.5635    6.6676 H           1 ROC       0.0653
     56 H7          0.1360    6.5925    9.0987 H           1 ROC       0.1882
     57 H8         -0.7685    4.3693    7.7150 H           1 ROC       0.0826
     58 H9          1.4351    4.2297    8.1534 H           1 ROC       0.0551
     59 H10         0.8452    3.1773    9.4226 H           1 ROC       0.0551
     60 H11         3.4437    5.5026   10.6808 H           1 ROC       0.1814
     61 H12         3.3951    4.3575    9.4439 H           1 ROC       0.1814
     62 H13        -4.1337    4.1984   10.2081 H           1 ROC       0.0672
     63 H14        -5.8251    3.7231   11.3321 H           1 ROC       0.2101
     64 H15        -3.4657    1.4054    9.3100 H           1 ROC       0.0606
     65 H16        -1.8204    2.5168    8.4721 H           1 ROC       0.1857
     66 H17        -2.9673    2.2517   12.1673 H           1 ROC       0.0449
     67 H18        -1.6230    1.5562   11.3063 H           1 ROC       0.0449
     68 H19        -5.2330    0.8089   12.0700 H           1 ROC       0.0557
     69 H20        -1.4223   -0.7843   11.1404 H           1 ROC       0.0557
     70 H21        -6.1010   -1.4221   12.2877 H           1 ROC       0.0599
     71 H22        -2.2999   -3.0096   11.4189 H           1 ROC       0.0599
     72 H23        -4.6450   -3.3382   12.0056 H           1 ROC       0.0559
     73 H24        -7.1422    3.1204    9.6511 H           1 ROC       0.2057
     74 H25        -4.8398    2.6446    7.9311 H           1 ROC       0.0841
     75 H26        -5.4491    4.1943    8.4197 H           1 ROC       0.0841
     76 H27        -6.3516    1.0202   10.1769 H           1 ROC       0.1100
     77 H28        -8.5750    1.5311   10.6156 H           1 ROC       0.0348
     78 H29        -8.6096   -0.1001    9.9810 H           1 ROC       0.0348
     79 H30       -10.4497    1.4537    9.2104 H           1 ROC       0.0309
     80 H31       -10.0352   -0.5536    7.8910 H           1 ROC       0.0268
     81 H32        -8.7738    0.2468    6.9545 H           1 ROC       0.0268
     82 H33       -11.7473    0.9552    6.9675 H           1 ROC       0.0265
     83 H34       -10.8335    0.2174    5.6453 H           1 ROC       0.0265
     84 H35       -11.2096    2.6780    5.2908 H           1 ROC       0.0265
     85 H36        -9.4926    2.2638    5.3462 H           1 ROC       0.0265
     86 H37       -11.1766    3.4961    7.5876 H           1 ROC       0.0270
     87 H38        -9.8954    4.3029    6.6867 H           1 ROC       0.0270
     88 H39        -9.3125    3.5342    9.0392 H           1 ROC       0.0355
     89 H40        -7.5064    2.4590    6.8245 H           1 ROC       0.0818
     90 H41        -7.5392    4.0828    7.5083 H           1 ROC       0.0818
     91 H42        -5.8836    1.2634    6.9403 H           1 ROC       0.1859
     92 H43        -5.7149   -0.6012    3.9509 H           1 ROC       0.0254
     93 H44        -5.9253    1.0051    4.6522 H           1 ROC       0.0254
     94 H45        -7.1871   -0.2196    4.8481 H           1 ROC       0.0254
     95 H46        -5.3950   -2.6282    5.4092 H           1 ROC       0.0254
     96 H47        -6.7886   -2.2614    6.4317 H           1 ROC       0.0254
     97 H48        -5.1859   -2.4892    7.1561 H           1 ROC       0.0254
     98 H49        -3.4257   -0.8955    5.3190 H           1 ROC       0.0254
     99 H50        -3.4503   -0.5723    7.0560 H           1 ROC       0.0254
    100 H51        -3.6817    0.7547    5.9048 H           1 ROC       0.0254
@<TRIPOS>BOND
     1     1     2   2
     2     1     4   1
     3    13     1  am
     4     4     3  ar
     5     3    12  ar
     6     4     5  ar
     7     5     6  ar
     8     6    11  ar
     9     7     8  ar
    10    11     7  ar
    11     9     8  ar
    12    10     9  ar
    13    12    10  ar
    14    12    11  ar
    15    14    13   1
    16    15    14   1
    17    14    17   1
    18    15    16   2
    19    24    15  am
    20    17    18   1
    21    18    19   2
    22    18    20  am
    23    21    22   1
    24    23    21   1
    25    21    33   1
    26    23    24   1
    27    23    25   1
    28    25    26   1
    29    26    27  ar
    30    26    28  ar
    31    27    29  ar
    32    28    30  ar
    33    29    31  ar
    34    30    31  ar
    35    33    32   1
    36    32    34   1
    37    32    44   1
    38    34    35   1
    39    34    37   1
    40    35    36   2
    41    35    45  am
    42    37    38   1
    43    38    39   1
    44    38    43   1
    45    39    40   1
    46    40    41   1
    47    41    42   1
    48    42    43   1
    49    43    44   1
    50    45    46   1
    51    46    47   1
    52    46    48   1
    53    46    49   1
    54     5    50   1
    55     6    51   1
    56     7    52   1
    57     8    53   1
    58     9    54   1
    59    10    55   1
    60    13    56   1
    61    14    57   1
    62    17    58   1
    63    17    59   1
    64    20    60   1
    65    20    61   1
    66    21    62   1
    67    22    63   1
    68    23    64   1
    69    24    65   1
    70    25    66   1
    71    25    67   1
    72    27    68   1
    73    28    69   1
    74    29    70   1
    75    30    71   1
    76    31    72   1
    77    32    73   1
    78    33    74   1
    79    33    75   1
    80    34    76   1
    81    37    77   1
    82    37    78   1
    83    38    79   1
    84    39    80   1
    85    39    81   1
    86    40    82   1
    87    40    83   1
    88    41    84   1
    89    41    85   1
    90    42    86   1
    91    42    87   1
    92    43    88   1
    93    44    89   1
    94    44    90   1
    95    45    91   1
    96    47    92   1
    97    47    93   1
    98    47    94   1
    99    48    95   1
   100    48    96   1
   101    48    97   1
   102    49    98   1
   103    49    99   1
   104    49   100   1
@<TRIPOS>SUBSTRUCTURE
     1  ROC      1

