@<TRIPOS>MOLECULE
3pww_ligand_024
   100   104
SMALL
GAST_HUCK
****
This file was generated by PARSER (from files_GN.cpp)

@<TRIPOS>ATOM
      1 C          -2.8052   -1.1321   10.5344 C.2         1 ROC       0.2293
      2 O          -1.6713   -1.0883   11.0063 O.2         1 ROC      -0.3762
      3 N1         -3.4752   -2.3766   12.4368 N.ar        1 ROC      -0.2737
      4 C2         -3.8010   -1.8069   11.2423 C.ar        1 ROC       0.1219
      5 C3         -5.1373   -1.9524   10.7904 C.ar        1 ROC      -0.0136
      6 C4         -6.0698   -2.6731   11.5617 C.ar        1 ROC      -0.0314
      7 C5         -6.5824   -3.9709   13.5957 C.ar        1 ROC      -0.0444
      8 C6         -6.1460   -4.5207   14.8175 C.ar        1 ROC      -0.0546
      9 C7         -4.8104   -4.3541   15.2303 C.ar        1 ROC      -0.0545
     10 C8         -3.9071   -3.6308   14.4335 C.ar        1 ROC      -0.0370
     11 C4A        -5.6845   -3.2467   12.7881 C.ar        1 ROC       0.0097
     12 C8A        -4.3391   -3.0749   13.2149 C.ar        1 ROC       0.0527
     13 N          -3.0577   -0.5301    9.3786 N.am        1 ROC      -0.2600
     14 CA         -2.1411    0.1698    8.5220 C.3         1 ROC       0.1473
     15 C1         -2.4444    1.5962    8.6357 C.2         1 ROC       0.2045
     16 O1         -3.5569    1.9991    8.3100 O.2         1 ROC      -0.3943
     17 CB         -2.2981   -0.3858    7.0729 C.3         1 ROC       0.0773
     18 CG         -1.1306   -0.1855    6.2333 C.2         1 ROC       0.1780
     19 OD1        -1.1746    0.5542    5.2614 O.2         1 ROC      -0.3970
     20 ND2        -0.0054   -0.8292    6.4756 N.am        1 ROC      -0.3007
     21 C9         -1.3069    4.7112    8.2229 C.3         1 ROC       0.1194
     22 O2         -1.0854    6.0681    8.6090 O.3         1 ROC      -0.3840
     23 CA1        -1.7050    3.8269    9.4526 C.3         1 ROC       0.0823
     24 N2         -1.5343    2.4378    9.1122 N.am        1 ROC      -0.2772
     25 CB1        -0.9540    4.0979   10.8073 C.3         1 ROC       0.0066
     26 CG1         0.3681    4.7888   10.7340 C.ar        1 ROC      -0.0408
     27 CD1         0.5752    6.0131   11.4192 C.ar        1 ROC      -0.0603
     28 CD2         1.4236    4.2764    9.9394 C.ar        1 ROC      -0.0603
     29 CE1         1.7763    6.7303   11.2754 C.ar        1 ROC      -0.0686
     30 CE2         2.6252    5.0001    9.7922 C.ar        1 ROC      -0.0686
     31 CZ          2.7974    6.2293   10.4472 C.ar        1 ROC      -0.0687
     32 N11        -3.4816    5.6291    7.1959 N.4         1 ROC       0.2562
     33 CM         -2.3258    4.6685    7.0367 C.3         1 ROC      -0.0008
     34 C21        -4.8366    5.0849    6.8056 C.3         1 ROC       0.0688
     35 CC         -5.0095    4.6633    5.4101 C.2         1 ROC       0.2251
     36 O3         -4.0261    4.4309    4.7181 O.2         1 ROC      -0.3909
     37 C31        -5.9311    6.0929    7.2961 C.3         1 ROC       0.0113
     38 C3A        -5.7142    7.5814    6.8728 C.3         1 ROC      -0.0261
     39 C41        -6.1344    7.8780    5.3956 C.3         1 ROC      -0.0494
     40 C51        -5.8722    9.3546    4.9961 C.3         1 ROC      -0.0528
     41 C61        -4.3974    9.7590    5.2463 C.3         1 ROC      -0.0526
     42 C71        -3.9760    9.4906    6.7157 C.3         1 ROC      -0.0451
     43 C7A        -4.2466    8.0259    7.1826 C.3         1 ROC       0.0024
     44 C81        -3.2211    6.9986    6.6240 C.3         1 ROC      -0.0266
     45 N3         -6.2356    4.4608    4.9376 N.am        1 ROC      -0.2771
     46 CD         -6.7285    4.1406    3.6138 C.3         1 ROC       0.0448
     47 C11        -5.7074    4.2090    2.4321 C.3         1 ROC      -0.0396
     48 C22        -7.8755    5.1585    3.3319 C.3         1 ROC      -0.0396
     49 C32        -7.3191    2.6991    3.6892 C.3         1 ROC      -0.0396
     50 H1         -5.4515   -1.5537    9.9035 H           1 ROC       0.0729
     51 H2         -7.0275   -2.7732   11.2159 H           1 ROC       0.0774
     52 H3         -7.5524   -4.1050   13.3058 H           1 ROC       0.0657
     53 H4         -6.7988   -5.0495   15.3968 H           1 ROC       0.0652
     54 H5         -4.4885   -4.7614   16.1100 H           1 ROC       0.0657
     55 H6         -2.9355   -3.5175   14.7415 H           1 ROC       0.0653
     56 H7         -3.9739   -0.5507    9.0661 H           1 ROC       0.1882
     57 H8         -1.1115   -0.0164    8.8482 H           1 ROC       0.0826
     58 H9         -3.1793    0.0569    6.6014 H           1 ROC       0.0551
     59 H10        -2.4780   -1.4632    7.1166 H           1 ROC       0.0551
     60 H11         0.7676   -0.6969    5.8961 H           1 ROC       0.1814
     61 H12         0.0581   -1.4500    7.2254 H           1 ROC       0.1814
     62 H13        -0.3446    4.3408    7.8499 H           1 ROC       0.0672
     63 H14        -0.5831    6.4477    7.8591 H           1 ROC       0.2101
     64 H15        -2.7696    4.0203    9.6464 H           1 ROC       0.0606
     65 H16        -0.6485    2.0670    9.2745 H           1 ROC       0.1857
     66 H17        -0.8017    3.1612   11.3517 H           1 ROC       0.0449
     67 H18        -1.6249    4.6889   11.4322 H           1 ROC       0.0449
     68 H19        -0.1563    6.4104   12.0078 H           1 ROC       0.0557
     69 H20         1.3155    3.3920    9.4439 H           1 ROC       0.0557
     70 H21         1.9048    7.6213   11.7627 H           1 ROC       0.0599
     71 H22         3.3692    4.6422    9.1932 H           1 ROC       0.0599
     72 H23         3.6612    6.7627   10.3254 H           1 ROC       0.0559
     73 H24        -3.5521    5.7750    8.2037 H           1 ROC       0.2057
     74 H25        -2.6804    3.6338    6.9354 H           1 ROC       0.0841
     75 H26        -1.7915    4.8940    6.1078 H           1 ROC       0.0841
     76 H27        -4.9878    4.1778    7.4018 H           1 ROC       0.1100
     77 H28        -5.9246    6.0658    8.3903 H           1 ROC       0.0348
     78 H29        -6.9290    5.7714    6.9931 H           1 ROC       0.0348
     79 H30        -6.3784    8.1874    7.5041 H           1 ROC       0.0309
     80 H31        -7.2001    7.6715    5.2726 H           1 ROC       0.0268
     81 H32        -5.5897    7.2358    4.7091 H           1 ROC       0.0268
     82 H33        -6.5298   10.0115    5.5715 H           1 ROC       0.0265
     83 H34        -6.1032    9.4912    3.9378 H           1 ROC       0.0265
     84 H35        -4.2757   10.8274    5.0266 H           1 ROC       0.0265
     85 H36        -3.7429    9.2056    4.5673 H           1 ROC       0.0265
     86 H37        -4.5334   10.1770    7.3636 H           1 ROC       0.0270
     87 H38        -2.9131    9.7309    6.8325 H           1 ROC       0.0270
     88 H39        -4.1262    8.0259    8.2740 H           1 ROC       0.0355
     89 H40        -3.2669    6.9729    5.5382 H           1 ROC       0.0818
     90 H41        -2.2267    7.3485    6.8885 H           1 ROC       0.0818
     91 H42        -6.9422    4.5793    5.5916 H           1 ROC       0.1859
     92 H43        -6.1909    3.9343    1.4884 H           1 ROC       0.0254
     93 H44        -4.8765    3.5260    2.5999 H           1 ROC       0.0254
     94 H45        -5.3102    5.2205    2.3229 H           1 ROC       0.0254
     95 H46        -8.3701    4.9401    2.3830 H           1 ROC       0.0254
     96 H47        -7.4764    6.1743    3.2858 H           1 ROC       0.0254
     97 H48        -8.6307    5.1284    4.1235 H           1 ROC       0.0254
     98 H49        -7.7712    2.4096    2.7367 H           1 ROC       0.0254
     99 H50        -8.0916    2.6301    4.4598 H           1 ROC       0.0254
    100 H51        -6.5376    1.9779    3.9288 H           1 ROC       0.0254
@<TRIPOS>BOND
     1     1     2   2
     2     1     4   1
     3    13     1  am
     4     4     3  ar
     5     3    12  ar
     6     4     5  ar
     7     5     6  ar
     8     6    11  ar
     9     7     8  ar
    10    11     7  ar
    11     9     8  ar
    12    10     9  ar
    13    12    10  ar
    14    12    11  ar
    15    14    13   1
    16    15    14   1
    17    14    17   1
    18    15    16   2
    19    24    15  am
    20    17    18   1
    21    18    19   2
    22    18    20  am
    23    21    22   1
    24    23    21   1
    25    21    33   1
    26    23    24   1
    27    23    25   1
    28    25    26   1
    29    26    27  ar
    30    26    28  ar
    31    27    29  ar
    32    28    30  ar
    33    29    31  ar
    34    30    31  ar
    35    33    32   1
    36    32    34   1
    37    32    44   1
    38    34    35   1
    39    34    37   1
    40    35    36   2
    41    35    45  am
    42    37    38   1
    43    38    39   1
    44    38    43   1
    45    39    40   1
    46    40    41   1
    47    41    42   1
    48    42    43   1
    49    43    44   1
    50    45    46   1
    51    46    47   1
    52    46    48   1
    53    46    49   1
    54     5    50   1
    55     6    51   1
    56     7    52   1
    57     8    53   1
    58     9    54   1
    59    10    55   1
    60    13    56   1
    61    14    57   1
    62    17    58   1
    63    17    59   1
    64    20    60   1
    65    20    61   1
    66    21    62   1
    67    22    63   1
    68    23    64   1
    69    24    65   1
    70    25    66   1
    71    25    67   1
    72    27    68   1
    73    28    69   1
    74    29    70   1
    75    30    71   1
    76    31    72   1
    77    32    73   1
    78    33    74   1
    79    33    75   1
    80    34    76   1
    81    37    77   1
    82    37    78   1
    83    38    79   1
    84    39    80   1
    85    39    81   1
    86    40    82   1
    87    40    83   1
    88    41    84   1
    89    41    85   1
    90    42    86   1
    91    42    87   1
    92    43    88   1
    93    44    89   1
    94    44    90   1
    95    45    91   1
    96    47    92   1
    97    47    93   1
    98    47    94   1
    99    48    95   1
   100    48    96   1
   101    48    97   1
   102    49    98   1
   103    49    99   1
   104    49   100   1
@<TRIPOS>SUBSTRUCTURE
     1  ROC      1

