@<TRIPOS>MOLECULE
3pww_ligand_026
   100   104
SMALL
GAST_HUCK
****
This file was generated by PARSER (from files_GN.cpp)

@<TRIPOS>ATOM
      1 C          -2.3998    2.7740   11.0473 C.2         1 ROC       0.2293
      2 O          -3.1164    3.7128   11.3965 O.2         1 ROC      -0.3762
      3 N1         -4.1720    1.2568   11.5143 N.ar        1 ROC      -0.2737
      4 C2         -2.8482    1.4775   11.2562 C.ar        1 ROC       0.1219
      5 C3         -1.9872    0.3479   11.2285 C.ar        1 ROC      -0.0136
      6 C4         -2.5079   -0.9375   11.4539 C.ar        1 ROC      -0.0314
      7 C5         -4.4361   -2.3862   11.9550 C.ar        1 ROC      -0.0444
      8 C6         -5.8152   -2.5261   12.2008 C.ar        1 ROC      -0.0546
      9 C7         -6.6418   -1.3884   12.2174 C.ar        1 ROC      -0.0545
     10 C8         -6.0976   -0.1105   11.9917 C.ar        1 ROC      -0.0370
     11 C4A        -3.8813   -1.1133   11.7117 C.ar        1 ROC       0.0097
     12 C8A        -4.7185    0.0336   11.7344 C.ar        1 ROC       0.0527
     13 N          -1.2485    3.0375   10.4232 N.am        1 ROC      -0.2600
     14 CA         -0.6770    4.3295   10.1593 C.3         1 ROC       0.1473
     15 C1         -1.6131    5.1378    9.3773 C.2         1 ROC       0.2045
     16 O1         -1.9911    6.2075    9.8361 O.2         1 ROC      -0.3943
     17 CB          0.7121    4.1691    9.4545 C.3         1 ROC       0.0773
     18 CG          1.6165    5.2943    9.6262 C.2         1 ROC       0.1780
     19 OD1         1.2730    6.4301    9.3284 O.2         1 ROC      -0.3970
     20 ND2         2.8535    5.1209   10.0455 N.am        1 ROC      -0.3007
     21 C9         -3.7178    4.2141    6.4560 C.3         1 ROC       0.1194
     22 O2         -2.6922    3.4848    5.7711 O.3         1 ROC      -0.3840
     23 CA1        -3.0813    5.3011    7.3899 C.3         1 ROC       0.0823
     24 N2         -2.0826    4.6718    8.2268 N.am        1 ROC      -0.2772
     25 CB1        -2.4615    6.5429    6.6607 C.3         1 ROC       0.0066
     26 CG1        -3.3603    7.7111    6.4478 C.ar        1 ROC      -0.0408
     27 CD1        -4.1604    8.2028    7.5074 C.ar        1 ROC      -0.0603
     28 CD2        -3.3392    8.4363    5.2289 C.ar        1 ROC      -0.0603
     29 CE1        -4.9347    9.3677    7.3475 C.ar        1 ROC      -0.0686
     30 CE2        -4.0967    9.6108    5.0775 C.ar        1 ROC      -0.0686
     31 CZ         -4.8970   10.0786    6.1338 C.ar        1 ROC      -0.0687
     32 N11        -5.9286    5.4867    5.7073 N.4         1 ROC       0.2562
     33 CM         -4.7294    4.6536    5.3540 C.3         1 ROC      -0.0008
     34 C21        -6.7527    5.0605    6.8992 C.3         1 ROC       0.0688
     35 CC         -7.3070    3.7020    6.9194 C.2         1 ROC       0.2251
     36 O3         -7.2907    3.0072    5.9147 O.2         1 ROC      -0.3909
     37 C31        -7.8275    6.1626    7.1999 C.3         1 ROC       0.0113
     38 C3A        -8.7127    6.5635    5.9812 C.3         1 ROC      -0.0261
     39 C41        -9.8446    5.5358    5.6609 C.3         1 ROC      -0.0494
     40 C51       -10.6868    5.9616    4.4325 C.3         1 ROC      -0.0528
     41 C61        -9.7953    6.1962    3.1889 C.3         1 ROC      -0.0526
     42 C71        -8.6728    7.2247    3.4813 C.3         1 ROC      -0.0451
     43 C7A        -7.8172    6.8875    4.7435 C.3         1 ROC       0.0024
     44 C81        -6.7622    5.7721    4.4889 C.3         1 ROC      -0.0266
     45 N3         -7.7740    3.2300    8.0689 N.am        1 ROC      -0.2771
     46 CD         -8.2803    1.9171    8.3930 C.3         1 ROC       0.0448
     47 C11        -8.7501    1.9893    9.8791 C.3         1 ROC      -0.0396
     48 C22        -7.1452    0.8545    8.2732 C.3         1 ROC      -0.0396
     49 C32        -9.5006    1.5320    7.5021 C.3         1 ROC      -0.0396
     50 H1         -0.9832    0.4471   11.0683 H           1 ROC       0.0729
     51 H2         -1.8766   -1.7434   11.4328 H           1 ROC       0.0774
     52 H3         -3.8444   -3.2170   11.9553 H           1 ROC       0.0657
     53 H4         -6.2105   -3.4518   12.3757 H           1 ROC       0.0652
     54 H5         -7.6435   -1.4931   12.4020 H           1 ROC       0.0657
     55 H6         -6.7087    0.7104   12.0201 H           1 ROC       0.0653
     56 H7         -0.7363    2.2682   10.1205 H           1 ROC       0.1882
     57 H8         -0.4938    4.7980   11.1314 H           1 ROC       0.0826
     58 H9          0.5772    4.0045    8.3839 H           1 ROC       0.0551
     59 H10         1.1902    3.2693    9.8507 H           1 ROC       0.0551
     60 H11         3.4536    5.8804   10.1326 H           1 ROC       0.1814
     61 H12         3.1837    4.2225   10.2176 H           1 ROC       0.1814
     62 H13        -4.2301    3.4855    7.0900 H           1 ROC       0.0672
     63 H14        -2.2127    2.9630    6.4512 H           1 ROC       0.2101
     64 H15        -3.8790    5.6413    8.0537 H           1 ROC       0.0606
     65 H16        -1.7611    3.7975    7.9583 H           1 ROC       0.1857
     66 H17        -2.0291    6.2128    5.7172 H           1 ROC       0.0449
     67 H18        -1.6278    6.9339    7.2472 H           1 ROC       0.0449
     68 H19        -4.1686    7.7284    8.4159 H           1 ROC       0.0557
     69 H20        -2.7361    8.1353    4.4611 H           1 ROC       0.0557
     70 H21        -5.5105    9.7111    8.1222 H           1 ROC       0.0599
     71 H22        -4.0494   10.1441    4.2048 H           1 ROC       0.0599
     72 H23        -5.4389   10.9384    6.0259 H           1 ROC       0.0559
     73 H24        -5.5429    6.3924    5.9842 H           1 ROC       0.2057
     74 H25        -5.0763    3.7382    4.8627 H           1 ROC       0.0841
     75 H26        -4.1531    5.2029    4.6045 H           1 ROC       0.0841
     76 H27        -6.0689    5.0871    7.7556 H           1 ROC       0.1100
     77 H28        -7.2900    7.0626    7.5185 H           1 ROC       0.0348
     78 H29        -8.4679    5.8786    8.0391 H           1 ROC       0.0348
     79 H30        -9.2209    7.4931    6.2598 H           1 ROC       0.0309
     80 H31       -10.5069    5.4432    6.5254 H           1 ROC       0.0268
     81 H32        -9.4265    4.5509    5.4575 H           1 ROC       0.0268
     82 H33       -11.2359    6.8781    4.6656 H           1 ROC       0.0265
     83 H34       -11.4178    5.1821    4.2087 H           1 ROC       0.0265
     84 H35       -10.4137    6.5692    2.3702 H           1 ROC       0.0265
     85 H36        -9.3558    5.2494    2.8680 H           1 ROC       0.0265
     86 H37        -9.1382    8.2028    3.6359 H           1 ROC       0.0270
     87 H38        -8.0264    7.3122    2.6034 H           1 ROC       0.0270
     88 H39        -7.2407    7.7910    4.9792 H           1 ROC       0.0355
     89 H40        -7.2551    4.8626    4.1378 H           1 ROC       0.0818
     90 H41        -6.1147    6.1192    3.6795 H           1 ROC       0.0818
     91 H42        -7.7272    3.8517    8.8125 H           1 ROC       0.1859
     92 H43        -9.0992    1.0154   10.2284 H           1 ROC       0.0254
     93 H44        -9.5681    2.7049    9.9935 H           1 ROC       0.0254
     94 H45        -7.9309    2.3110   10.5261 H           1 ROC       0.0254
     95 H46        -7.4888   -0.1199    8.6257 H           1 ROC       0.0254
     96 H47        -6.2793    1.1516    8.8695 H           1 ROC       0.0254
     97 H48        -6.8214    0.7413    7.2374 H           1 ROC       0.0254
     98 H49        -9.9407    0.5911    7.8390 H           1 ROC       0.0254
     99 H50        -9.2045    1.4075    6.4599 H           1 ROC       0.0254
    100 H51       -10.2687    2.3073    7.5488 H           1 ROC       0.0254
@<TRIPOS>BOND
     1     1     2   2
     2     1     4   1
     3    13     1  am
     4     4     3  ar
     5     3    12  ar
     6     4     5  ar
     7     5     6  ar
     8     6    11  ar
     9     7     8  ar
    10    11     7  ar
    11     9     8  ar
    12    10     9  ar
    13    12    10  ar
    14    12    11  ar
    15    14    13   1
    16    15    14   1
    17    14    17   1
    18    15    16   2
    19    24    15  am
    20    17    18   1
    21    18    19   2
    22    18    20  am
    23    21    22   1
    24    23    21   1
    25    21    33   1
    26    23    24   1
    27    23    25   1
    28    25    26   1
    29    26    27  ar
    30    26    28  ar
    31    27    29  ar
    32    28    30  ar
    33    29    31  ar
    34    30    31  ar
    35    33    32   1
    36    32    34   1
    37    32    44   1
    38    34    35   1
    39    34    37   1
    40    35    36   2
    41    35    45  am
    42    37    38   1
    43    38    39   1
    44    38    43   1
    45    39    40   1
    46    40    41   1
    47    41    42   1
    48    42    43   1
    49    43    44   1
    50    45    46   1
    51    46    47   1
    52    46    48   1
    53    46    49   1
    54     5    50   1
    55     6    51   1
    56     7    52   1
    57     8    53   1
    58     9    54   1
    59    10    55   1
    60    13    56   1
    61    14    57   1
    62    17    58   1
    63    17    59   1
    64    20    60   1
    65    20    61   1
    66    21    62   1
    67    22    63   1
    68    23    64   1
    69    24    65   1
    70    25    66   1
    71    25    67   1
    72    27    68   1
    73    28    69   1
    74    29    70   1
    75    30    71   1
    76    31    72   1
    77    32    73   1
    78    33    74   1
    79    33    75   1
    80    34    76   1
    81    37    77   1
    82    37    78   1
    83    38    79   1
    84    39    80   1
    85    39    81   1
    86    40    82   1
    87    40    83   1
    88    41    84   1
    89    41    85   1
    90    42    86   1
    91    42    87   1
    92    43    88   1
    93    44    89   1
    94    44    90   1
    95    45    91   1
    96    47    92   1
    97    47    93   1
    98    47    94   1
    99    48    95   1
   100    48    96   1
   101    48    97   1
   102    49    98   1
   103    49    99   1
   104    49   100   1
@<TRIPOS>SUBSTRUCTURE
     1  ROC      1

