@<TRIPOS>MOLECULE
3pww_ligand_092
   100   104
SMALL
GAST_HUCK
****
This file was generated by PARSER (from files_GN.cpp)

@<TRIPOS>ATOM
      1 C          -1.2488    7.2199    7.9448 C.2         1 ROC       0.2293
      2 O          -1.7968    6.8767    6.9004 O.2         1 ROC      -0.3762
      3 N1         -2.0664    9.4078    7.6235 N.ar        1 ROC      -0.2737
      4 C2         -1.1916    8.5723    8.2564 C.ar        1 ROC       0.1219
      5 C3         -0.3448    9.1396    9.2399 C.ar        1 ROC      -0.0136
      6 C4         -0.4222   10.5151    9.5278 C.ar        1 ROC      -0.0314
      7 C5         -1.4978   12.7151    9.1351 C.ar        1 ROC      -0.0444
      8 C6         -2.4637   13.4761    8.4554 C.ar        1 ROC      -0.0546
      9 C7         -3.2899   12.8763    7.4886 C.ar        1 ROC      -0.0545
     10 C8         -3.1482   11.5059    7.1916 C.ar        1 ROC      -0.0370
     11 C4A        -1.3552   11.3344    8.8579 C.ar        1 ROC       0.0097
     12 C8A        -2.1863   10.7351    7.8758 C.ar        1 ROC       0.0527
     13 N          -0.8696    6.2893    8.8229 N.am        1 ROC      -0.2600
     14 CA         -1.1610    4.8711    8.7545 C.3         1 ROC       0.1473
     15 C1         -2.5996    4.5765    8.7497 C.2         1 ROC       0.2045
     16 O1         -3.4178    5.4710    8.9451 O.2         1 ROC      -0.3943
     17 CB         -0.4371    4.1263    9.9318 C.3         1 ROC       0.0773
     18 CG          0.9021    3.6825    9.5776 C.2         1 ROC       0.1780
     19 OD1         1.1800    2.4913    9.5628 O.2         1 ROC      -0.3970
     20 ND2         1.8287    4.5305    9.2002 N.am        1 ROC      -0.3007
     21 C9         -4.6494    3.3781    6.6257 C.3         1 ROC       0.1194
     22 O2         -4.8710    4.7933    6.6483 O.3         1 ROC      -0.3840
     23 CA1        -4.3315    2.8899    8.0822 C.3         1 ROC       0.0823
     24 N2         -3.0067    3.3425    8.4363 N.am        1 ROC      -0.2772
     25 CB1        -5.4362    3.2335    9.1487 C.3         1 ROC       0.0066
     26 CG1        -5.8779    2.1332   10.0570 C.ar        1 ROC      -0.0408
     27 CD1        -6.6939    1.0930    9.5543 C.ar        1 ROC      -0.0603
     28 CD2        -5.6223    2.1845   11.4487 C.ar        1 ROC      -0.0603
     29 CE1        -7.2661    0.1467   10.4255 C.ar        1 ROC      -0.0686
     30 CE2        -6.1969    1.2413   12.3199 C.ar        1 ROC      -0.0686
     31 CZ         -7.0258    0.2272   11.8096 C.ar        1 ROC      -0.0687
     32 N11        -6.0454    2.8782    4.4597 N.4         1 ROC       0.2562
     33 CM         -5.8652    2.6793    5.9474 C.3         1 ROC      -0.0008
     34 C21        -5.9275    4.2908    3.9346 C.3         1 ROC       0.0688
     35 CC         -6.7460    5.3183    4.5819 C.2         1 ROC       0.2251
     36 O3         -7.7784    5.0052    5.1604 O.2         1 ROC      -0.3909
     37 C31        -6.0546    4.3353    2.3797 C.3         1 ROC       0.0113
     38 C3A        -7.2879    3.5784    1.7965 C.3         1 ROC      -0.0261
     39 C41        -8.6263    4.3797    1.9080 C.3         1 ROC      -0.0494
     40 C51        -9.8355    3.5862    1.3534 C.3         1 ROC      -0.0528
     41 C61        -9.9514    2.2022    2.0357 C.3         1 ROC      -0.0526
     42 C71        -8.6411    1.3864    1.8988 C.3         1 ROC      -0.0451
     43 C7A        -7.3775    2.1419    2.4091 C.3         1 ROC       0.0024
     44 C81        -7.2632    2.1513    3.9617 C.3         1 ROC      -0.0266
     45 N3         -6.2659    6.5563    4.6807 N.am        1 ROC      -0.2771
     46 CD         -6.8380    7.7078    5.3363 C.3         1 ROC       0.0448
     47 C11        -8.0699    8.1977    4.5168 C.3         1 ROC      -0.0396
     48 C22        -5.7383    8.8181    5.3405 C.3         1 ROC      -0.0396
     49 C32        -7.2368    7.4116    6.8192 C.3         1 ROC      -0.0396
     50 H1          0.3332    8.5630    9.7490 H           1 ROC       0.0729
     51 H2          0.1962   10.9121   10.2394 H           1 ROC       0.0774
     52 H3         -0.9071   13.1659    9.8379 H           1 ROC       0.0657
     53 H4         -2.5691   14.4748    8.6632 H           1 ROC       0.0652
     54 H5         -3.9945   13.4320    7.0012 H           1 ROC       0.0657
     55 H6         -3.7535   11.0771    6.4890 H           1 ROC       0.0653
     56 H7         -0.4467    6.5974    9.6345 H           1 ROC       0.1882
     57 H8         -0.7703    4.5012    7.8020 H           1 ROC       0.0826
     58 H9         -1.0155    3.2472   10.2539 H           1 ROC       0.0551
     59 H10        -0.3734    4.7767   10.8082 H           1 ROC       0.0551
     60 H11         2.6879    4.1916    8.8991 H           1 ROC       0.1814
     61 H12         1.6433    5.4836    9.1646 H           1 ROC       0.1814
     62 H13        -3.7802    3.1804    5.9837 H           1 ROC       0.0672
     63 H14        -3.9666    5.1867    6.7209 H           1 ROC       0.2101
     64 H15        -4.2443    1.8044    8.0179 H           1 ROC       0.0606
     65 H16        -2.2972    2.6929    8.3035 H           1 ROC       0.1857
     66 H17        -6.3358    3.6052    8.6426 H           1 ROC       0.0449
     67 H18        -5.0997    4.0775    9.7607 H           1 ROC       0.0449
     68 H19        -6.9148    1.0424    8.5547 H           1 ROC       0.0557
     69 H20        -5.0437    2.9300   11.8382 H           1 ROC       0.0557
     70 H21        -7.8728   -0.5881   10.0549 H           1 ROC       0.0599
     71 H22        -6.0276    1.3006   13.3230 H           1 ROC       0.0599
     72 H23        -7.4609   -0.4487   12.4432 H           1 ROC       0.0559
     73 H24        -5.2570    2.3814    4.0361 H           1 ROC       0.2057
     74 H25        -6.7789    2.9808    6.4690 H           1 ROC       0.0841
     75 H26        -5.7456    1.6050    6.1159 H           1 ROC       0.0841
     76 H27        -4.8816    4.5657    4.1200 H           1 ROC       0.1100
     77 H28        -5.1557    3.8565    1.9713 H           1 ROC       0.0348
     78 H29        -6.0442    5.3691    2.0193 H           1 ROC       0.0348
     79 H30        -7.0960    3.4627    0.7243 H           1 ROC       0.0309
     80 H31        -8.5342    5.3191    1.3544 H           1 ROC       0.0268
     81 H32        -8.8437    4.6324    2.9451 H           1 ROC       0.0268
     82 H33        -9.7275    3.4591    0.2771 H           1 ROC       0.0265
     83 H34       -10.7489    4.1531    1.5370 H           1 ROC       0.0265
     84 H35       -10.7721    1.6437    1.5796 H           1 ROC       0.0265
     85 H36       -10.1928    2.3362    3.0940 H           1 ROC       0.0265
     86 H37        -8.4956    1.1430    0.8425 H           1 ROC       0.0270
     87 H38        -8.7508    0.4408    2.4345 H           1 ROC       0.0270
     88 H39        -6.5044    1.5842    2.0488 H           1 ROC       0.0355
     89 H40        -8.1634    2.5789    4.4040 H           1 ROC       0.0818
     90 H41        -7.2034    1.1091    4.2856 H           1 ROC       0.0818
     91 H42        -5.4112    6.7086    4.2455 H           1 ROC       0.1859
     92 H43        -8.5040    9.0947    4.9657 H           1 ROC       0.0254
     93 H44        -8.8415    7.4246    4.4811 H           1 ROC       0.0254
     94 H45        -7.7778    8.4325    3.4888 H           1 ROC       0.0254
     95 H46        -6.1158    9.7428    5.7872 H           1 ROC       0.0254
     96 H47        -5.4045    9.0461    4.3251 H           1 ROC       0.0254
     97 H48        -4.8675    8.4919    5.9174 H           1 ROC       0.0254
     98 H49        -7.4847    8.3369    7.3512 H           1 ROC       0.0254
     99 H50        -6.4137    6.9274    7.3444 H           1 ROC       0.0254
    100 H51        -8.1088    6.7616    6.8721 H           1 ROC       0.0254
@<TRIPOS>BOND
     1     1     2   2
     2     1     4   1
     3    13     1  am
     4     4     3  ar
     5     3    12  ar
     6     4     5  ar
     7     5     6  ar
     8     6    11  ar
     9     7     8  ar
    10    11     7  ar
    11     9     8  ar
    12    10     9  ar
    13    12    10  ar
    14    12    11  ar
    15    14    13   1
    16    15    14   1
    17    14    17   1
    18    15    16   2
    19    24    15  am
    20    17    18   1
    21    18    19   2
    22    18    20  am
    23    21    22   1
    24    23    21   1
    25    21    33   1
    26    23    24   1
    27    23    25   1
    28    25    26   1
    29    26    27  ar
    30    26    28  ar
    31    27    29  ar
    32    28    30  ar
    33    29    31  ar
    34    30    31  ar
    35    33    32   1
    36    32    34   1
    37    32    44   1
    38    34    35   1
    39    34    37   1
    40    35    36   2
    41    35    45  am
    42    37    38   1
    43    38    39   1
    44    38    43   1
    45    39    40   1
    46    40    41   1
    47    41    42   1
    48    42    43   1
    49    43    44   1
    50    45    46   1
    51    46    47   1
    52    46    48   1
    53    46    49   1
    54     5    50   1
    55     6    51   1
    56     7    52   1
    57     8    53   1
    58     9    54   1
    59    10    55   1
    60    13    56   1
    61    14    57   1
    62    17    58   1
    63    17    59   1
    64    20    60   1
    65    20    61   1
    66    21    62   1
    67    22    63   1
    68    23    64   1
    69    24    65   1
    70    25    66   1
    71    25    67   1
    72    27    68   1
    73    28    69   1
    74    29    70   1
    75    30    71   1
    76    31    72   1
    77    32    73   1
    78    33    74   1
    79    33    75   1
    80    34    76   1
    81    37    77   1
    82    37    78   1
    83    38    79   1
    84    39    80   1
    85    39    81   1
    86    40    82   1
    87    40    83   1
    88    41    84   1
    89    41    85   1
    90    42    86   1
    91    42    87   1
    92    43    88   1
    93    44    89   1
    94    44    90   1
    95    45    91   1
    96    47    92   1
    97    47    93   1
    98    47    94   1
    99    48    95   1
   100    48    96   1
   101    48    97   1
   102    49    98   1
   103    49    99   1
   104    49   100   1
@<TRIPOS>SUBSTRUCTURE
     1  ROC      1

