@<TRIPOS>MOLECULE
3pww_ligand_071
   100   104
SMALL
GAST_HUCK
****
This file was generated by PARSER (from files_GN.cpp)

@<TRIPOS>ATOM
      1 C          -2.8536   -0.9657   10.4732 C.2         1 ROC       0.2293
      2 O          -1.7159   -0.9287   10.9310 O.2         1 ROC      -0.3762
      3 N1         -3.4641   -2.2700   12.3489 N.ar        1 ROC      -0.2737
      4 C2         -3.8279   -1.6784   11.1758 C.ar        1 ROC       0.1219
      5 C3         -5.1646   -1.8586   10.7396 C.ar        1 ROC      -0.0136
      6 C4         -6.0566   -2.6367   11.5034 C.ar        1 ROC      -0.0314
      7 C5         -6.4784   -4.0237   13.5077 C.ar        1 ROC      -0.0444
      8 C6         -5.9945   -4.5939   14.7013 C.ar        1 ROC      -0.0546
      9 C7         -4.6620   -4.3744   15.1016 C.ar        1 ROC      -0.0545
     10 C8         -3.8071   -3.5855   14.3146 C.ar        1 ROC      -0.0370
     11 C4A        -5.6281   -3.2325   12.7048 C.ar        1 ROC       0.0097
     12 C8A        -4.2873   -3.0194   13.1187 C.ar        1 ROC       0.0527
     13 N          -3.1143   -0.3584    9.3199 N.am        1 ROC      -0.2600
     14 CA         -2.1742    0.2791    8.4430 C.3         1 ROC       0.1473
     15 C1         -2.4758    1.7081    8.4677 C.2         1 ROC       0.2045
     16 O1         -1.9254    2.4074    9.3105 O.2         1 ROC      -0.3943
     17 CB         -2.2695   -0.4503    7.0615 C.3         1 ROC       0.0773
     18 CG         -1.1250   -0.2269    6.1976 C.2         1 ROC       0.1780
     19 OD1        -1.1994    0.5281    5.2373 O.2         1 ROC      -0.3970
     20 ND2         0.0058   -0.8635    6.4138 N.am        1 ROC      -0.3007
     21 C9         -5.4443    3.5064    7.5903 C.3         1 ROC       0.1194
     22 O2         -5.8556    2.5031    6.6469 O.3         1 ROC      -0.3840
     23 CA1        -3.8752    3.5831    7.5796 C.3         1 ROC       0.0823
     24 N2         -3.3908    2.2268    7.6631 N.am        1 ROC      -0.2772
     25 CB1        -3.2421    4.2221    6.3015 C.3         1 ROC       0.0066
     26 CG1        -2.8985    5.6673    6.3857 C.ar        1 ROC      -0.0408
     27 CD1        -2.1563    6.1614    7.4882 C.ar        1 ROC      -0.0603
     28 CD2        -3.1686    6.5509    5.3101 C.ar        1 ROC      -0.0603
     29 CE1        -1.6957    7.4928    7.5128 C.ar        1 ROC      -0.0686
     30 CE2        -2.7019    7.8782    5.3296 C.ar        1 ROC      -0.0686
     31 CZ         -1.9597    8.3481    6.4301 C.ar        1 ROC      -0.0687
     32 N11        -7.7173    4.8201    7.5553 N.4         1 ROC       0.2562
     33 CM         -6.2235    4.8279    7.3010 C.3         1 ROC      -0.0008
     34 C21        -8.4989    3.5974    7.1204 C.3         1 ROC       0.0688
     35 CC         -8.3745    3.1837    5.7155 C.2         1 ROC       0.2251
     36 O3         -7.8851    3.9414    4.8846 O.2         1 ROC      -0.3909
     37 C31        -9.9911    3.6942    7.5855 C.3         1 ROC       0.0113
     38 C3A       -10.7076    5.0153    7.1907 C.3         1 ROC      -0.0261
     39 C41       -11.1496    5.0613    5.6946 C.3         1 ROC      -0.0494
     40 C51       -11.8625    6.3927    5.3505 C.3         1 ROC      -0.0528
     41 C61       -10.9696    7.6093    5.6982 C.3         1 ROC      -0.0526
     42 C71       -10.5162    7.5804    7.1829 C.3         1 ROC      -0.0451
     43 C7A        -9.8359    6.2399    7.6076 C.3         1 ROC       0.0024
     44 C81        -8.3608    6.1087    7.1191 C.3         1 ROC      -0.0266
     45 N3         -8.6874    1.9348    5.3882 N.am        1 ROC      -0.2771
     46 CD         -8.4402    1.2400    4.1512 C.3         1 ROC       0.0448
     47 C11        -6.9329    0.8530    4.0359 C.3         1 ROC      -0.0396
     48 C22        -8.8962    2.0742    2.9125 C.3         1 ROC      -0.0396
     49 C32        -9.2807   -0.0694    4.2164 C.3         1 ROC      -0.0396
     50 H1         -5.5018   -1.4458    9.8678 H           1 ROC       0.0729
     51 H2         -7.0152   -2.7651   11.1731 H           1 ROC       0.0774
     52 H3         -7.4481   -4.1952   13.2294 H           1 ROC       0.0657
     53 H4         -6.6120   -5.1753   15.2738 H           1 ROC       0.0652
     54 H5         -4.3055   -4.7972   15.9609 H           1 ROC       0.0657
     55 H6         -2.8386   -3.4349   14.6092 H           1 ROC       0.0653
     56 H7         -4.0334   -0.3752    9.0110 H           1 ROC       0.1882
     57 H8         -1.1484    0.1394    8.8007 H           1 ROC       0.0826
     58 H9         -3.1926   -0.1720    6.5406 H           1 ROC       0.0551
     59 H10        -2.3429   -1.5301    7.2297 H           1 ROC       0.0551
     60 H11         0.7616   -0.7273    5.8224 H           1 ROC       0.1814
     61 H12         0.0754   -1.4915    7.1539 H           1 ROC       0.1814
     62 H13        -5.7502    3.1657    8.5950 H           1 ROC       0.0672
     63 H14        -5.9360    1.6724    7.1767 H           1 ROC       0.2101
     64 H15        -3.5671    4.1429    8.4680 H           1 ROC       0.0606
     65 H16        -3.7580    1.6256    7.0003 H           1 ROC       0.1857
     66 H17        -3.8982    4.0247    5.4516 H           1 ROC       0.0449
     67 H18        -2.3005    3.7194    6.0827 H           1 ROC       0.0449
     68 H19        -1.9137    5.5454    8.2689 H           1 ROC       0.0557
     69 H20        -3.6753    6.2199    4.4819 H           1 ROC       0.0557
     70 H21        -1.1467    7.8263    8.3110 H           1 ROC       0.0599
     71 H22        -2.8855    8.4955    4.5374 H           1 ROC       0.0599
     72 H23        -1.5966    9.3002    6.4319 H           1 ROC       0.0559
     73 H24        -7.8016    4.8257    8.5737 H           1 ROC       0.2057
     74 H25        -6.0236    5.1237    6.2730 H           1 ROC       0.0841
     75 H26        -5.7871    5.5886    7.9467 H           1 ROC       0.0841
     76 H27        -8.0957    2.7674    7.7025 H           1 ROC       0.1100
     77 H28        -9.9953    3.6273    8.6769 H           1 ROC       0.0348
     78 H29       -10.5680    2.8327    7.2264 H           1 ROC       0.0348
     79 H30       -11.6262    5.0538    7.7803 H           1 ROC       0.0309
     80 H31       -11.8306    4.2316    5.4871 H           1 ROC       0.0268
     81 H32       -10.2932    4.9573    5.0294 H           1 ROC       0.0268
     82 H33       -12.8036    6.4568    5.9051 H           1 ROC       0.0265
     83 H34       -12.1031    6.4144    4.2838 H           1 ROC       0.0265
     84 H35       -11.5253    8.5309    5.5076 H           1 ROC       0.0265
     85 H36       -10.0949    7.6096    5.0463 H           1 ROC       0.0265
     86 H37       -11.3988    7.7388    7.8139 H           1 ROC       0.0270
     87 H38        -9.8395    8.4217    7.3674 H           1 ROC       0.0270
     88 H39        -9.7849    6.2520    8.7026 H           1 ROC       0.0355
     89 H40        -8.3135    6.2170    6.0337 H           1 ROC       0.0818
     90 H41        -7.8032    6.9481    7.5506 H           1 ROC       0.0818
     91 H42        -9.0876    1.4060    6.0945 H           1 ROC       0.1859
     92 H43        -6.7460    0.2708    3.1281 H           1 ROC       0.0254
     93 H44        -6.6293    0.2509    4.8959 H           1 ROC       0.0254
     94 H45        -6.2952    1.7388    4.0027 H           1 ROC       0.0254
     95 H46        -8.9071    1.4564    2.0066 H           1 ROC       0.0254
     96 H47        -8.2245    2.9178    2.7312 H           1 ROC       0.0254
     97 H48        -9.9045    2.4701    3.0627 H           1 ROC       0.0254
     98 H49        -9.1624   -0.6588    3.3009 H           1 ROC       0.0254
     99 H50       -10.3443    0.1598    4.3396 H           1 ROC       0.0254
    100 H51        -8.9673   -0.6906    5.0621 H           1 ROC       0.0254
@<TRIPOS>BOND
     1     1     2   2
     2     1     4   1
     3    13     1  am
     4     4     3  ar
     5     3    12  ar
     6     4     5  ar
     7     5     6  ar
     8     6    11  ar
     9     7     8  ar
    10    11     7  ar
    11     9     8  ar
    12    10     9  ar
    13    12    10  ar
    14    12    11  ar
    15    14    13   1
    16    15    14   1
    17    14    17   1
    18    15    16   2
    19    24    15  am
    20    17    18   1
    21    18    19   2
    22    18    20  am
    23    21    22   1
    24    23    21   1
    25    21    33   1
    26    23    24   1
    27    23    25   1
    28    25    26   1
    29    26    27  ar
    30    26    28  ar
    31    27    29  ar
    32    28    30  ar
    33    29    31  ar
    34    30    31  ar
    35    33    32   1
    36    32    34   1
    37    32    44   1
    38    34    35   1
    39    34    37   1
    40    35    36   2
    41    35    45  am
    42    37    38   1
    43    38    39   1
    44    38    43   1
    45    39    40   1
    46    40    41   1
    47    41    42   1
    48    42    43   1
    49    43    44   1
    50    45    46   1
    51    46    47   1
    52    46    48   1
    53    46    49   1
    54     5    50   1
    55     6    51   1
    56     7    52   1
    57     8    53   1
    58     9    54   1
    59    10    55   1
    60    13    56   1
    61    14    57   1
    62    17    58   1
    63    17    59   1
    64    20    60   1
    65    20    61   1
    66    21    62   1
    67    22    63   1
    68    23    64   1
    69    24    65   1
    70    25    66   1
    71    25    67   1
    72    27    68   1
    73    28    69   1
    74    29    70   1
    75    30    71   1
    76    31    72   1
    77    32    73   1
    78    33    74   1
    79    33    75   1
    80    34    76   1
    81    37    77   1
    82    37    78   1
    83    38    79   1
    84    39    80   1
    85    39    81   1
    86    40    82   1
    87    40    83   1
    88    41    84   1
    89    41    85   1
    90    42    86   1
    91    42    87   1
    92    43    88   1
    93    44    89   1
    94    44    90   1
    95    45    91   1
    96    47    92   1
    97    47    93   1
    98    47    94   1
    99    48    95   1
   100    48    96   1
   101    48    97   1
   102    49    98   1
   103    49    99   1
   104    49   100   1
@<TRIPOS>SUBSTRUCTURE
     1  ROC      1

