@<TRIPOS>MOLECULE
3pww_ligand_040
   100   104
SMALL
GAST_HUCK
****
This file was generated by PARSER (from files_GN.cpp)

@<TRIPOS>ATOM
      1 C           0.3822    9.8851   10.7819 C.2         1 ROC       0.2293
      2 O           0.2428    9.2381   11.8131 O.2         1 ROC      -0.3762
      3 N1         -0.8981   11.5977   11.7930 N.ar        1 ROC      -0.2737
      4 C2         -0.1342   11.1807   10.7433 C.ar        1 ROC       0.1219
      5 C3          0.0714   12.0980    9.6829 C.ar        1 ROC      -0.0136
      6 C4         -0.5027   13.3818    9.7433 C.ar        1 ROC      -0.0314
      7 C5         -1.8540   15.0557   10.9761 C.ar        1 ROC      -0.0444
      8 C6         -2.6186   15.3841   12.1094 C.ar        1 ROC      -0.0546
      9 C7         -2.8181   14.4331   13.1299 C.ar        1 ROC      -0.0545
     10 C8         -2.2404   13.1566   13.0279 C.ar        1 ROC      -0.0370
     11 C4A        -1.2726   13.7715   10.8588 C.ar        1 ROC       0.0097
     12 C8A        -1.4659   12.8257   11.8992 C.ar        1 ROC       0.0527
     13 N           0.9712    9.3087    9.7341 N.am        1 ROC      -0.2600
     14 CA          1.4462    7.9462    9.6097 C.3         1 ROC       0.1473
     15 C1          0.3512    6.9794    9.7089 C.2         1 ROC       0.2045
     16 O1         -0.5292    7.1281   10.5451 O.2         1 ROC      -0.3943
     17 CB          2.7067    7.6391   10.4922 C.3         1 ROC       0.0773
     18 CG          2.9258    6.2483   10.8593 C.2         1 ROC       0.1780
     19 OD1         2.9820    5.9151   12.0367 O.2         1 ROC      -0.3970
     20 ND2         3.0555    5.3092    9.9501 N.am        1 ROC      -0.3007
     21 C9         -1.9577    5.1838    8.4127 C.3         1 ROC       0.1194
     22 O2         -2.6187    3.9810    8.0012 O.3         1 ROC      -0.3840
     23 CA1        -0.5338    4.7872    8.9546 C.3         1 ROC       0.0823
     24 N2          0.3788    5.8949    8.9435 N.am        1 ROC      -0.2772
     25 CB1        -0.5531    4.1231   10.3819 C.3         1 ROC       0.0066
     26 CG1        -0.5473    2.6337   10.4273 C.ar        1 ROC      -0.0408
     27 CD1         0.5612    1.9098    9.9236 C.ar        1 ROC      -0.0603
     28 CD2        -1.5745    1.9192   11.0897 C.ar        1 ROC      -0.0603
     29 CE1         0.6543    0.5170   10.1012 C.ar        1 ROC      -0.0686
     30 CE2        -1.4865    0.5237   11.2548 C.ar        1 ROC      -0.0686
     31 CZ         -0.3688   -0.1761   10.7705 C.ar        1 ROC      -0.0687
     32 N11        -3.1945    7.1452    7.2401 N.4         1 ROC       0.2562
     33 CM         -1.9974    6.2237    7.2365 C.3         1 ROC      -0.0008
     34 C21        -4.5443    6.4939    7.0380 C.3         1 ROC       0.0688
     35 CC         -4.8127    5.8444    5.7502 C.2         1 ROC       0.2251
     36 O3         -3.9613    5.8336    4.8737 O.2         1 ROC      -0.3909
     37 C31        -5.6340    7.5307    7.4567 C.3         1 ROC       0.0113
     38 C3A        -5.5330    8.9054    6.7327 C.3         1 ROC      -0.0261
     39 C41        -6.0608    8.8827    5.2646 C.3         1 ROC      -0.0494
     40 C51        -5.9339   10.2667    4.5811 C.3         1 ROC      -0.0528
     41 C61        -4.4815   10.8015    4.6452 C.3         1 ROC      -0.0526
     42 C71        -3.9424   10.8329    6.0971 C.3         1 ROC      -0.0451
     43 C7A        -4.0775    9.4687    6.8417 C.3         1 ROC       0.0024
     44 C81        -3.0159    8.4034    6.4302 C.3         1 ROC      -0.0266
     45 N3         -5.9854    5.2479    5.5538 N.am        1 ROC      -0.2771
     46 CD         -6.4388    4.4563    4.4331 C.3         1 ROC       0.0448
     47 C11        -5.6983    3.0883    4.4479 C.3         1 ROC      -0.0396
     48 C22        -6.2333    5.1715    3.0579 C.3         1 ROC      -0.0396
     49 C32        -7.9635    4.2059    4.6434 C.3         1 ROC      -0.0396
     50 H1          0.6443   11.8553    8.8727 H           1 ROC       0.0729
     51 H2         -0.3530   14.0369    8.9715 H           1 ROC       0.0774
     52 H3         -1.7263   15.7523   10.2377 H           1 ROC       0.0657
     53 H4         -3.0355   16.3152   12.1934 H           1 ROC       0.0652
     54 H5         -3.3877   14.6716   13.9439 H           1 ROC       0.0657
     55 H6         -2.3897   12.4659   13.7711 H           1 ROC       0.0653
     56 H7          1.0551    9.8560    8.9312 H           1 ROC       0.1882
     57 H8          1.7965    7.8974    8.5756 H           1 ROC       0.0826
     58 H9          2.6627    8.2358   11.4061 H           1 ROC       0.0551
     59 H10         3.5994    7.9835    9.9567 H           1 ROC       0.0551
     60 H11         3.1836    4.3795   10.2113 H           1 ROC       0.1814
     61 H12         2.9794    5.5361    9.0104 H           1 ROC       0.1814
     62 H13        -2.5351    5.6018    9.2438 H           1 ROC       0.0672
     63 H14        -1.9573    3.5026    7.4525 H           1 ROC       0.2101
     64 H15        -0.1069    4.0776    8.2470 H           1 ROC       0.0606
     65 H16         1.1303    5.8305    8.3220 H           1 ROC       0.1857
     66 H17        -1.4009    4.5160   10.9493 H           1 ROC       0.0449
     67 H18         0.3331    4.4287   10.9481 H           1 ROC       0.0449
     68 H19         1.3275    2.4027    9.4566 H           1 ROC       0.0557
     69 H20        -2.3778    2.4154   11.4827 H           1 ROC       0.0557
     70 H21         1.4727    0.0096    9.7525 H           1 ROC       0.0599
     71 H22        -2.2298    0.0229   11.7473 H           1 ROC       0.0599
     72 H23        -0.2901   -1.1795   10.9279 H           1 ROC       0.0559
     73 H24        -3.2287    7.4901    8.2004 H           1 ROC       0.2057
     74 H25        -1.9003    5.6987    6.2853 H           1 ROC       0.0841
     75 H26        -1.1085    6.8490    7.3282 H           1 ROC       0.0841
     76 H27        -4.6163    5.6899    7.7736 H           1 ROC       0.1100
     77 H28        -5.4997    7.7201    8.5256 H           1 ROC       0.0348
     78 H29        -6.6410    7.1237    7.3424 H           1 ROC       0.0348
     79 H30        -6.1851    9.5930    7.2839 H           1 ROC       0.0309
     80 H31        -7.1118    8.5785    5.2602 H           1 ROC       0.0268
     81 H32        -5.5066    8.1647    4.6627 H           1 ROC       0.0268
     82 H33        -6.6079   10.9753    5.0706 H           1 ROC       0.0265
     83 H34        -6.2385   10.1832    3.5345 H           1 ROC       0.0265
     84 H35        -4.4586   11.8101    4.2286 H           1 ROC       0.0265
     85 H36        -3.8328   10.1732    4.0333 H           1 ROC       0.0265
     86 H37        -4.5049   11.5887    6.6557 H           1 ROC       0.0270
     87 H38        -2.8965   11.1542    6.0872 H           1 ROC       0.0270
     88 H39        -3.8882    9.6777    7.9013 H           1 ROC       0.0355
     89 H40        -3.0617    8.2004    5.3576 H           1 ROC       0.0818
     90 H41        -2.0323    8.8363    6.6348 H           1 ROC       0.0818
     91 H42        -6.6198    5.3288    6.2844 H           1 ROC       0.1859
     92 H43        -6.0515    2.4519    3.6321 H           1 ROC       0.0254
     93 H44        -5.8752    2.5698    5.3927 H           1 ROC       0.0254
     94 H45        -4.6206    3.2285    4.3335 H           1 ROC       0.0254
     95 H46        -6.7478    4.6304    2.2561 H           1 ROC       0.0254
     96 H47        -5.1738    5.2217    2.7885 H           1 ROC       0.0254
     97 H48        -6.6300    6.1896    3.0895 H           1 ROC       0.0254
     98 H49        -8.3707    3.5882    3.8398 H           1 ROC       0.0254
     99 H50        -8.5120    5.1510    4.6594 H           1 ROC       0.0254
    100 H51        -8.1435    3.6919    5.5896 H           1 ROC       0.0254
@<TRIPOS>BOND
     1     1     2   2
     2     1     4   1
     3    13     1  am
     4     4     3  ar
     5     3    12  ar
     6     4     5  ar
     7     5     6  ar
     8     6    11  ar
     9     7     8  ar
    10    11     7  ar
    11     9     8  ar
    12    10     9  ar
    13    12    10  ar
    14    12    11  ar
    15    14    13   1
    16    15    14   1
    17    14    17   1
    18    15    16   2
    19    24    15  am
    20    17    18   1
    21    18    19   2
    22    18    20  am
    23    21    22   1
    24    23    21   1
    25    21    33   1
    26    23    24   1
    27    23    25   1
    28    25    26   1
    29    26    27  ar
    30    26    28  ar
    31    27    29  ar
    32    28    30  ar
    33    29    31  ar
    34    30    31  ar
    35    33    32   1
    36    32    34   1
    37    32    44   1
    38    34    35   1
    39    34    37   1
    40    35    36   2
    41    35    45  am
    42    37    38   1
    43    38    39   1
    44    38    43   1
    45    39    40   1
    46    40    41   1
    47    41    42   1
    48    42    43   1
    49    43    44   1
    50    45    46   1
    51    46    47   1
    52    46    48   1
    53    46    49   1
    54     5    50   1
    55     6    51   1
    56     7    52   1
    57     8    53   1
    58     9    54   1
    59    10    55   1
    60    13    56   1
    61    14    57   1
    62    17    58   1
    63    17    59   1
    64    20    60   1
    65    20    61   1
    66    21    62   1
    67    22    63   1
    68    23    64   1
    69    24    65   1
    70    25    66   1
    71    25    67   1
    72    27    68   1
    73    28    69   1
    74    29    70   1
    75    30    71   1
    76    31    72   1
    77    32    73   1
    78    33    74   1
    79    33    75   1
    80    34    76   1
    81    37    77   1
    82    37    78   1
    83    38    79   1
    84    39    80   1
    85    39    81   1
    86    40    82   1
    87    40    83   1
    88    41    84   1
    89    41    85   1
    90    42    86   1
    91    42    87   1
    92    43    88   1
    93    44    89   1
    94    44    90   1
    95    45    91   1
    96    47    92   1
    97    47    93   1
    98    47    94   1
    99    48    95   1
   100    48    96   1
   101    48    97   1
   102    49    98   1
   103    49    99   1
   104    49   100   1
@<TRIPOS>SUBSTRUCTURE
     1  ROC      1

