@<TRIPOS>MOLECULE
3pww_ligand_013
   100   104
SMALL
GAST_HUCK
****
This file was generated by PARSER (from files_GN.cpp)

@<TRIPOS>ATOM
      1 C          -5.2221   -0.6369    6.7558 C.2         1 ROC       0.2293
      2 O          -5.0779   -1.3491    7.7442 O.2         1 ROC      -0.3762
      3 N1         -7.1143   -1.9444    6.2026 N.ar        1 ROC      -0.2737
      4 C2         -6.3340   -0.8578    5.9441 C.ar        1 ROC       0.1219
      5 C3         -6.7428    0.0053    4.8988 C.ar        1 ROC      -0.0136
      6 C4         -7.9279   -0.2621    4.1887 C.ar        1 ROC      -0.0314
      7 C5         -9.9106   -1.6998    3.8327 C.ar        1 ROC      -0.0444
      8 C6        -10.6405   -2.8532    4.1773 C.ar        1 ROC      -0.0546
      9 C7        -10.1829   -3.7026    5.2003 C.ar        1 ROC      -0.0545
     10 C8         -8.9901   -3.4016    5.8865 C.ar        1 ROC      -0.0370
     11 C4A        -8.7079   -1.3937    4.5035 C.ar        1 ROC       0.0097
     12 C8A        -8.2552   -2.2523    5.5392 C.ar        1 ROC       0.0527
     13 N          -4.3606    0.3548    6.5441 N.am        1 ROC      -0.2600
     14 CA         -3.2882    0.7530    7.4251 C.3         1 ROC       0.1473
     15 C1         -2.8698    2.1276    7.1510 C.2         1 ROC       0.2045
     16 O1         -2.7359    2.4958    5.9897 O.2         1 ROC      -0.3943
     17 CB         -2.0897   -0.2479    7.4153 C.3         1 ROC       0.0773
     18 CG         -1.1255   -0.1899    6.3226 C.2         1 ROC       0.1780
     19 OD1        -1.3158    0.4726    5.3115 O.2         1 ROC      -0.3970
     20 ND2        -0.0015   -0.8716    6.4284 N.am        1 ROC      -0.3007
     21 C9         -1.3898    4.7096    9.4188 C.3         1 ROC       0.1194
     22 O2         -2.1303    5.6024   10.2541 O.3         1 ROC      -0.3840
     23 CA1        -2.1627    4.3213    8.0941 C.3         1 ROC       0.0823
     24 N2         -2.5992    2.9481    8.1675 N.am        1 ROC      -0.2772
     25 CB1        -3.4281    5.1909    7.7592 C.3         1 ROC       0.0066
     26 CG1        -3.9200    5.0048    6.3621 C.ar        1 ROC      -0.0408
     27 CD1        -4.9948    4.1302    6.0666 C.ar        1 ROC      -0.0603
     28 CD2        -3.2909    5.6850    5.2873 C.ar        1 ROC      -0.0603
     29 CE1        -5.4091    3.9261    4.7343 C.ar        1 ROC      -0.0686
     30 CE2        -3.7071    5.4832    3.9578 C.ar        1 ROC      -0.0686
     31 CZ         -4.7651    4.6000    3.6820 C.ar        1 ROC      -0.0687
     32 N11         0.4497    6.6347    8.8333 N.4         1 ROC       0.2562
     33 CM          0.0884    5.2188    9.2480 C.3         1 ROC      -0.0008
     34 C21         1.4036    7.3747    9.7499 C.3         1 ROC       0.0688
     35 CC          0.9824    7.6000   11.1337 C.2         1 ROC       0.2251
     36 O3         -0.1417    7.2805   11.4944 O.2         1 ROC      -0.3909
     37 C31         1.9033    8.6862    9.0554 C.3         1 ROC       0.0113
     38 C3A         0.7748    9.6031    8.4888 C.3         1 ROC      -0.0261
     39 C41        -0.0028   10.4117    9.5714 C.3         1 ROC      -0.0494
     40 C51        -1.1245   11.2854    8.9500 C.3         1 ROC      -0.0528
     41 C61        -2.0975   10.4429    8.0861 C.3         1 ROC      -0.0526
     42 C71        -1.3424    9.6255    7.0089 C.3         1 ROC      -0.0451
     43 C7A        -0.1734    8.7623    7.5805 C.3         1 ROC       0.0024
     44 C81        -0.6644    7.4795    8.3090 C.3         1 ROC      -0.0266
     45 N3          1.8430    8.1442   11.9881 N.am        1 ROC      -0.2771
     46 CD          1.6651    8.5163   13.3730 C.3         1 ROC       0.0448
     47 C11         0.6256    9.6712   13.5132 C.3         1 ROC      -0.0396
     48 C22         3.0566    9.0241   13.8614 C.3         1 ROC      -0.0396
     49 C32         1.2455    7.2906   14.2400 C.3         1 ROC      -0.0396
     50 H1         -6.2075    0.8420    4.6595 H           1 ROC       0.0729
     51 H2         -8.2233    0.3803    3.4484 H           1 ROC       0.0774
     52 H3        -10.2565   -1.0941    3.0847 H           1 ROC       0.0657
     53 H4        -11.5069   -3.0755    3.6822 H           1 ROC       0.0652
     54 H5        -10.7177   -4.5372    5.4523 H           1 ROC       0.0657
     55 H6         -8.6665   -4.0185    6.6360 H           1 ROC       0.0653
     56 H7         -4.4921    0.8979    5.7494 H           1 ROC       0.1882
     57 H8         -3.6983    0.7338    8.4458 H           1 ROC       0.0826
     58 H9         -2.4960   -1.2663    7.4293 H           1 ROC       0.0551
     59 H10        -1.5415   -0.1072    8.3581 H           1 ROC       0.0551
     60 H11         0.6928   -0.7692    5.7542 H           1 ROC       0.1814
     61 H12         0.1421   -1.4456    7.2056 H           1 ROC       0.1814
     62 H13        -1.3021    3.7993   10.0219 H           1 ROC       0.0672
     63 H14        -2.9696    5.1352   10.4544 H           1 ROC       0.2101
     64 H15        -1.4488    4.4116    7.2632 H           1 ROC       0.0606
     65 H16        -2.7292    2.5910    9.0662 H           1 ROC       0.1857
     66 H17        -3.2180    6.2541    7.8953 H           1 ROC       0.0449
     67 H18        -4.2183    4.9445    8.4767 H           1 ROC       0.0449
     68 H19        -5.4656    3.6179    6.8132 H           1 ROC       0.0557
     69 H20        -2.5095    6.3193    5.4620 H           1 ROC       0.0557
     70 H21        -6.1767    3.2763    4.5319 H           1 ROC       0.0599
     71 H22        -3.2405    5.9777    3.1947 H           1 ROC       0.0599
     72 H23        -5.0647    4.4486    2.7139 H           1 ROC       0.0559
     73 H24         1.0358    6.4827    8.0078 H           1 ROC       0.2057
     74 H25         0.5587    4.5589    8.5170 H           1 ROC       0.0841
     75 H26         0.5928    4.9867   10.1900 H           1 ROC       0.0841
     76 H27         2.2866    6.7319    9.8215 H           1 ROC       0.1100
     77 H28         2.5377    8.3934    8.2111 H           1 ROC       0.0348
     78 H29         2.5401    9.2726    9.7197 H           1 ROC       0.0348
     79 H30         1.2653   10.3413    7.8468 H           1 ROC       0.0309
     80 H31         0.6915   11.0593   10.1116 H           1 ROC       0.0268
     81 H32        -0.4628    9.7427   10.2975 H           1 ROC       0.0268
     82 H33        -0.6737   12.0670    8.3321 H           1 ROC       0.0265
     83 H34        -1.6869   11.7743    9.7519 H           1 ROC       0.0265
     84 H35        -2.8104   11.1124    7.5970 H           1 ROC       0.0265
     85 H36        -2.6686    9.7671    8.7258 H           1 ROC       0.0265
     86 H37        -0.9325   10.3314    6.2831 H           1 ROC       0.0270
     87 H38        -2.0537    8.9894    6.4744 H           1 ROC       0.0270
     88 H39         0.4097    8.4183    6.7178 H           1 ROC       0.0355
     89 H40        -1.3574    7.7353    9.1117 H           1 ROC       0.0818
     90 H41        -1.2017    6.9022    7.5619 H           1 ROC       0.0818
     91 H42         2.7215    8.3346   11.6181 H           1 ROC       0.1859
     92 H43         0.5807   10.0277   14.5440 H           1 ROC       0.0254
     93 H44        -0.3749    9.3371   13.2319 H           1 ROC       0.0254
     94 H45         0.8970   10.5110   12.8695 H           1 ROC       0.0254
     95 H46         3.0163    9.3355   14.9072 H           1 ROC       0.0254
     96 H47         3.3877    9.8779   13.2642 H           1 ROC       0.0254
     97 H48         3.8086    8.2364   13.7689 H           1 ROC       0.0254
     98 H49         1.2420    7.5506   15.3013 H           1 ROC       0.0254
     99 H50         1.9376    6.4579   14.0909 H           1 ROC       0.0254
    100 H51         0.2432    6.9533   13.9774 H           1 ROC       0.0254
@<TRIPOS>BOND
     1     1     2   2
     2     1     4   1
     3    13     1  am
     4     4     3  ar
     5     3    12  ar
     6     4     5  ar
     7     5     6  ar
     8     6    11  ar
     9     7     8  ar
    10    11     7  ar
    11     9     8  ar
    12    10     9  ar
    13    12    10  ar
    14    12    11  ar
    15    14    13   1
    16    15    14   1
    17    14    17   1
    18    15    16   2
    19    24    15  am
    20    17    18   1
    21    18    19   2
    22    18    20  am
    23    21    22   1
    24    23    21   1
    25    21    33   1
    26    23    24   1
    27    23    25   1
    28    25    26   1
    29    26    27  ar
    30    26    28  ar
    31    27    29  ar
    32    28    30  ar
    33    29    31  ar
    34    30    31  ar
    35    33    32   1
    36    32    34   1
    37    32    44   1
    38    34    35   1
    39    34    37   1
    40    35    36   2
    41    35    45  am
    42    37    38   1
    43    38    39   1
    44    38    43   1
    45    39    40   1
    46    40    41   1
    47    41    42   1
    48    42    43   1
    49    43    44   1
    50    45    46   1
    51    46    47   1
    52    46    48   1
    53    46    49   1
    54     5    50   1
    55     6    51   1
    56     7    52   1
    57     8    53   1
    58     9    54   1
    59    10    55   1
    60    13    56   1
    61    14    57   1
    62    17    58   1
    63    17    59   1
    64    20    60   1
    65    20    61   1
    66    21    62   1
    67    22    63   1
    68    23    64   1
    69    24    65   1
    70    25    66   1
    71    25    67   1
    72    27    68   1
    73    28    69   1
    74    29    70   1
    75    30    71   1
    76    31    72   1
    77    32    73   1
    78    33    74   1
    79    33    75   1
    80    34    76   1
    81    37    77   1
    82    37    78   1
    83    38    79   1
    84    39    80   1
    85    39    81   1
    86    40    82   1
    87    40    83   1
    88    41    84   1
    89    41    85   1
    90    42    86   1
    91    42    87   1
    92    43    88   1
    93    44    89   1
    94    44    90   1
    95    45    91   1
    96    47    92   1
    97    47    93   1
    98    47    94   1
    99    48    95   1
   100    48    96   1
   101    48    97   1
   102    49    98   1
   103    49    99   1
   104    49   100   1
@<TRIPOS>SUBSTRUCTURE
     1  ROC      1

