@<TRIPOS>MOLECULE
3pww_ligand_010
   100   104
SMALL
GAST_HUCK
****
This file was generated by PARSER (from files_GN.cpp)

@<TRIPOS>ATOM
      1 C          -3.4186   -0.8239   10.3022 C.2         1 ROC       0.2293
      2 O          -2.3321   -0.5165   10.7807 O.2         1 ROC      -0.3762
      3 N1         -3.8231   -2.1607   12.2209 N.ar        1 ROC      -0.2737
      4 C2         -4.2875   -1.5934   11.0714 C.ar        1 ROC       0.1219
      5 C3         -5.6418   -1.8340   10.7234 C.ar        1 ROC      -0.0136
      6 C4         -6.4511   -2.6355   11.5473 C.ar        1 ROC      -0.0314
      7 C5         -6.6897   -4.0272   13.5759 C.ar        1 ROC      -0.0444
      8 C6         -6.1134   -4.5721   14.7388 C.ar        1 ROC      -0.0546
      9 C7         -4.7678   -4.3045   15.0556 C.ar        1 ROC      -0.0545
     10 C8         -3.9928   -3.4890   14.2120 C.ar        1 ROC      -0.0370
     11 C4A        -5.9212   -3.2102   12.7210 C.ar        1 ROC       0.0097
     12 C8A        -4.5648   -2.9452   13.0450 C.ar        1 ROC       0.0527
     13 N          -3.7244   -0.4594    9.0596 N.am        1 ROC      -0.2600
     14 CA         -2.9176    0.2802    8.1290 C.3         1 ROC       0.1473
     15 C1         -3.6214    1.5069    7.7601 C.2         1 ROC       0.2045
     16 O1         -4.8101    1.4804    7.4703 O.2         1 ROC      -0.3943
     17 CB         -2.5782   -0.6371    6.9147 C.3         1 ROC       0.0773
     18 CG         -1.3914   -0.2313    6.1828 C.2         1 ROC       0.1780
     19 OD1        -1.4558    0.6540    5.3413 O.2         1 ROC      -0.3970
     20 ND2        -0.2128   -0.7703    6.4310 N.am        1 ROC      -0.3007
     21 C9         -4.0736    4.2564    6.1887 C.3         1 ROC       0.1194
     22 O2         -3.5137    3.3421    5.2319 O.3         1 ROC      -0.3840
     23 CA1        -3.4485    4.0002    7.6131 C.3         1 ROC       0.0823
     24 N2         -2.9527    2.6521    7.7612 N.am        1 ROC      -0.2772
     25 CB1        -2.3085    4.9906    8.0312 C.3         1 ROC       0.0066
     26 CG1        -1.4788    4.5231    9.1870 C.ar        1 ROC      -0.0408
     27 CD1        -2.0844    4.1532   10.4132 C.ar        1 ROC      -0.0603
     28 CD2        -0.0853    4.3237    9.0385 C.ar        1 ROC      -0.0603
     29 CE1        -1.3268    3.5519   11.4359 C.ar        1 ROC      -0.0686
     30 CE2         0.6754    3.7493   10.0734 C.ar        1 ROC      -0.0686
     31 CZ          0.0533    3.3503   11.2676 C.ar        1 ROC      -0.0687
     32 N11        -4.3979    6.9272    6.1915 N.4         1 ROC       0.2562
     33 CM         -3.9675    5.6555    5.5049 C.3         1 ROC      -0.0008
     34 C21        -5.6097    6.8758    7.0873 C.3         1 ROC       0.0688
     35 CC         -6.8004    6.2013    6.5654 C.2         1 ROC       0.2251
     36 O3         -7.0844    6.3202    5.3843 O.2         1 ROC      -0.3909
     37 C31        -5.9353    8.2707    7.7224 C.3         1 ROC       0.0113
     38 C3A        -5.8810    9.4942    6.7659 C.3         1 ROC      -0.0261
     39 C41        -7.1728    9.6970    5.9125 C.3         1 ROC      -0.0494
     40 C51        -7.0678   10.9346    4.9840 C.3         1 ROC      -0.0528
     41 C61        -5.8118   10.8516    4.0772 C.3         1 ROC      -0.0526
     42 C71        -4.5166   10.6543    4.9107 C.3         1 ROC      -0.0451
     43 C7A        -4.5842    9.4486    5.9023 C.3         1 ROC       0.0024
     44 C81        -4.4157    8.0659    5.2098 C.3         1 ROC      -0.0266
     45 N3         -7.5276    5.4569    7.3966 N.am        1 ROC      -0.2771
     46 CD         -8.7081    4.6543    7.1838 C.3         1 ROC       0.0448
     47 C11        -8.2763    3.1735    7.3975 C.3         1 ROC      -0.0396
     48 C22        -9.4329    4.7876    5.8025 C.3         1 ROC      -0.0396
     49 C32        -9.7054    5.0672    8.3080 C.3         1 ROC      -0.0396
     50 H1         -6.0588   -1.4270    9.8854 H           1 ROC       0.0729
     51 H2         -7.4269   -2.7929   11.2862 H           1 ROC       0.0774
     52 H3         -7.6682   -4.2344   13.3569 H           1 ROC       0.0657
     53 H4         -6.6736   -5.1700   15.3484 H           1 ROC       0.0652
     54 H5         -4.3475   -4.7064   15.8941 H           1 ROC       0.0657
     55 H6         -3.0143   -3.3009   14.4454 H           1 ROC       0.0653
     56 H7         -4.5765   -0.7646    8.7172 H           1 ROC       0.1882
     57 H8         -1.9659    0.5434    8.6054 H           1 ROC       0.0826
     58 H9         -3.4270   -0.6993    6.2255 H           1 ROC       0.0551
     59 H10        -2.4091   -1.6505    7.2920 H           1 ROC       0.0551
     60 H11         0.5724   -0.4858    5.9322 H           1 ROC       0.1814
     61 H12        -0.1230   -1.4438    7.1279 H           1 ROC       0.1814
     62 H13        -5.1407    4.0129    6.2497 H           1 ROC       0.0672
     63 H14        -3.9131    2.4631    5.4250 H           1 ROC       0.2101
     64 H15        -4.2484    4.1254    8.3521 H           1 ROC       0.0606
     65 H16        -2.0061    2.5720    7.9457 H           1 ROC       0.1857
     66 H17        -2.7440    5.9495    8.3096 H           1 ROC       0.0449
     67 H18        -1.6694    5.1684    7.1634 H           1 ROC       0.0449
     68 H19        -3.0926    4.2720   10.5498 H           1 ROC       0.0557
     69 H20         0.3839    4.5646    8.1615 H           1 ROC       0.0557
     70 H21        -1.7892    3.2410   12.2923 H           1 ROC       0.0599
     71 H22         1.6754    3.5972    9.9393 H           1 ROC       0.0599
     72 H23         0.5996    2.9151   12.0076 H           1 ROC       0.0559
     73 H24        -3.6242    7.1537    6.8182 H           1 ROC       0.2057
     74 H25        -4.5286    5.5623    4.5684 H           1 ROC       0.0841
     75 H26        -2.9179    5.7841    5.2209 H           1 ROC       0.0841
     76 H27        -5.2727    6.2719    7.9336 H           1 ROC       0.1100
     77 H28        -5.1885    8.4519    8.4994 H           1 ROC       0.0348
     78 H29        -6.9096    8.2492    8.2176 H           1 ROC       0.0348
     79 H30        -5.8096   10.3817    7.4018 H           1 ROC       0.0309
     80 H31        -8.0338    9.8328    6.5703 H           1 ROC       0.0268
     81 H32        -7.3672    8.8223    5.2942 H           1 ROC       0.0268
     82 H33        -7.0187   11.8473    5.5859 H           1 ROC       0.0265
     83 H34        -7.9609   10.9964    4.3536 H           1 ROC       0.0265
     84 H35        -5.7249   11.7741    3.4934 H           1 ROC       0.0265
     85 H36        -5.9289   10.0206    3.3740 H           1 ROC       0.0265
     86 H37        -4.3410   11.5698    5.4873 H           1 ROC       0.0270
     87 H38        -3.6675   10.5290    4.2289 H           1 ROC       0.0270
     88 H39        -3.7304    9.5567    6.5796 H           1 ROC       0.0355
     89 H40        -5.2109    7.9168    4.4734 H           1 ROC       0.0818
     90 H41        -3.4630    8.0899    4.6633 H           1 ROC       0.0818
     91 H42        -7.1751    5.3906    8.3034 H           1 ROC       0.1859
     92 H43        -9.1421    2.5053    7.3664 H           1 ROC       0.0254
     93 H44        -7.7846    3.0488    8.3691 H           1 ROC       0.0254
     94 H45        -7.5721    2.8644    6.6204 H           1 ROC       0.0254
     95 H46       -10.3499    4.1918    5.7873 H           1 ROC       0.0254
     96 H47        -8.7958    4.4365    4.9871 H           1 ROC       0.0254
     97 H48        -9.7046    5.8279    5.6117 H           1 ROC       0.0254
     98 H49       -10.6083    4.4537    8.2730 H           1 ROC       0.0254
     99 H50        -9.9950    6.1139    8.1960 H           1 ROC       0.0254
    100 H51        -9.2500    4.9424    9.2963 H           1 ROC       0.0254
@<TRIPOS>BOND
     1     1     2   2
     2     1     4   1
     3    13     1  am
     4     4     3  ar
     5     3    12  ar
     6     4     5  ar
     7     5     6  ar
     8     6    11  ar
     9     7     8  ar
    10    11     7  ar
    11     9     8  ar
    12    10     9  ar
    13    12    10  ar
    14    12    11  ar
    15    14    13   1
    16    15    14   1
    17    14    17   1
    18    15    16   2
    19    24    15  am
    20    17    18   1
    21    18    19   2
    22    18    20  am
    23    21    22   1
    24    23    21   1
    25    21    33   1
    26    23    24   1
    27    23    25   1
    28    25    26   1
    29    26    27  ar
    30    26    28  ar
    31    27    29  ar
    32    28    30  ar
    33    29    31  ar
    34    30    31  ar
    35    33    32   1
    36    32    34   1
    37    32    44   1
    38    34    35   1
    39    34    37   1
    40    35    36   2
    41    35    45  am
    42    37    38   1
    43    38    39   1
    44    38    43   1
    45    39    40   1
    46    40    41   1
    47    41    42   1
    48    42    43   1
    49    43    44   1
    50    45    46   1
    51    46    47   1
    52    46    48   1
    53    46    49   1
    54     5    50   1
    55     6    51   1
    56     7    52   1
    57     8    53   1
    58     9    54   1
    59    10    55   1
    60    13    56   1
    61    14    57   1
    62    17    58   1
    63    17    59   1
    64    20    60   1
    65    20    61   1
    66    21    62   1
    67    22    63   1
    68    23    64   1
    69    24    65   1
    70    25    66   1
    71    25    67   1
    72    27    68   1
    73    28    69   1
    74    29    70   1
    75    30    71   1
    76    31    72   1
    77    32    73   1
    78    33    74   1
    79    33    75   1
    80    34    76   1
    81    37    77   1
    82    37    78   1
    83    38    79   1
    84    39    80   1
    85    39    81   1
    86    40    82   1
    87    40    83   1
    88    41    84   1
    89    41    85   1
    90    42    86   1
    91    42    87   1
    92    43    88   1
    93    44    89   1
    94    44    90   1
    95    45    91   1
    96    47    92   1
    97    47    93   1
    98    47    94   1
    99    48    95   1
   100    48    96   1
   101    48    97   1
   102    49    98   1
   103    49    99   1
   104    49   100   1
@<TRIPOS>SUBSTRUCTURE
     1  ROC      1

