@<TRIPOS>MOLECULE
3pww_ligand_091
   100   104
SMALL
GAST_HUCK
****
This file was generated by PARSER (from files_GN.cpp)

@<TRIPOS>ATOM
      1 C          -3.1611   -0.9263   10.2144 C.2         1 ROC       0.2293
      2 O          -2.0474   -0.6795   10.6588 O.2         1 ROC      -0.3762
      3 N1         -3.6184   -2.2387   12.1551 N.ar        1 ROC      -0.2737
      4 C2         -4.0530   -1.6796   10.9863 C.ar        1 ROC       0.1219
      5 C3         -5.4128   -1.8800   10.6414 C.ar        1 ROC      -0.0136
      6 C4         -6.2590   -2.6292   11.4768 C.ar        1 ROC      -0.0314
      7 C5         -6.5759   -3.9422   13.5443 C.ar        1 ROC      -0.0444
      8 C6         -6.0345   -4.4774   14.7265 C.ar        1 ROC      -0.0546
      9 C7         -4.6792   -4.2626   15.0451 C.ar        1 ROC      -0.0545
     10 C8         -3.8618   -3.5074   14.1831 C.ar        1 ROC      -0.0370
     11 C4A        -5.7618   -3.1887   12.6709 C.ar        1 ROC       0.0097
     12 C8A        -4.3967   -2.9720   12.9948 C.ar        1 ROC       0.0527
     13 N          -3.5130   -0.4578    9.0222 N.am        1 ROC      -0.2600
     14 CA         -2.8135    0.4567    8.1547 C.3         1 ROC       0.1473
     15 C1         -3.5497    1.7262    8.0897 C.2         1 ROC       0.2045
     16 O1         -4.5853    1.8792    8.7308 O.2         1 ROC      -0.3943
     17 CB         -2.6766   -0.2434    6.7543 C.3         1 ROC       0.0773
     18 CG         -1.4296    0.0295    6.0633 C.2         1 ROC       0.1780
     19 OD1        -1.4130    0.7340    5.0633 O.2         1 ROC      -0.3970
     20 ND2        -0.3003   -0.5167    6.4549 N.am        1 ROC      -0.3007
     21 C9         -4.4591    3.9845    5.6915 C.3         1 ROC       0.1194
     22 O2         -4.9130    5.3034    5.3836 O.3         1 ROC      -0.3840
     23 CA1        -3.7466    3.9859    7.0862 C.3         1 ROC       0.0823
     24 N2         -3.1146    2.7088    7.3047 N.am        1 ROC      -0.2772
     25 CB1        -2.6398    5.0682    7.3081 C.3         1 ROC       0.0066
     26 CG1        -3.0774    6.4910    7.2466 C.ar        1 ROC      -0.0408
     27 CD1        -4.1220    6.9765    8.0643 C.ar        1 ROC      -0.0603
     28 CD2        -2.4266    7.4080    6.3711 C.ar        1 ROC      -0.0603
     29 CE1        -4.5398    8.3147    7.9822 C.ar        1 ROC      -0.0686
     30 CE2        -2.8223    8.7518    6.3148 C.ar        1 ROC      -0.0686
     31 CZ         -3.8752    9.2134    7.1228 C.ar        1 ROC      -0.0687
     32 N11        -6.3702    2.7195    4.3465 N.4         1 ROC       0.2562
     33 CM         -5.6776    3.0002    5.6577 C.3         1 ROC      -0.0008
     34 C21        -6.7650    3.8988    3.4755 C.3         1 ROC       0.0688
     35 CC         -7.6293    4.9287    4.0733 C.2         1 ROC       0.2251
     36 O3         -8.0265    4.7918    5.2223 O.2         1 ROC      -0.3909
     37 C31        -7.3037    3.3713    2.1032 C.3         1 ROC       0.0113
     38 C3A        -8.4536    2.3265    2.2077 C.3         1 ROC      -0.0261
     39 C41        -9.8463    2.9468    2.5541 C.3         1 ROC      -0.0494
     40 C51       -10.9561    1.8705    2.6725 C.3         1 ROC      -0.0528
     41 C61       -10.5646    0.7700    3.6909 C.3         1 ROC      -0.0526
     42 C71        -9.1896    0.1396    3.3455 C.3         1 ROC      -0.0451
     43 C7A        -8.0376    1.1800    3.1829 C.3         1 ROC       0.0024
     44 C81        -7.5046    1.7428    4.5345 C.3         1 ROC      -0.0266
     45 N3         -7.9490    6.0270    3.3936 N.am        1 ROC      -0.2771
     46 CD         -8.6549    7.2103    3.8409 C.3         1 ROC       0.0448
     47 C11        -8.8820    8.1051    2.5829 C.3         1 ROC      -0.0396
     48 C22        -7.7594    7.9794    4.8578 C.3         1 ROC      -0.0396
     49 C32       -10.0548    6.8884    4.4600 C.3         1 ROC      -0.0396
     50 H1         -5.8166   -1.4764    9.7927 H           1 ROC       0.0729
     51 H2         -7.2389   -2.7540   11.2129 H           1 ROC       0.0774
     52 H3         -7.5620   -4.1089   13.3264 H           1 ROC       0.0657
     53 H4         -6.6260   -5.0278   15.3533 H           1 ROC       0.0652
     54 H5         -4.2837   -4.6586   15.8991 H           1 ROC       0.0657
     55 H6         -2.8794   -3.3559   14.4234 H           1 ROC       0.0653
     56 H7         -4.3879   -0.7128    8.7004 H           1 ROC       0.1882
     57 H8         -1.8208    0.6771    8.5609 H           1 ROC       0.0826
     58 H9         -3.5242    0.0337    6.1159 H           1 ROC       0.0551
     59 H10        -2.7350   -1.3287    6.8639 H           1 ROC       0.0551
     60 H11         0.5194   -0.3535    5.9558 H           1 ROC       0.1814
     61 H12        -0.2819   -1.1134    7.2247 H           1 ROC       0.1814
     62 H13        -3.7452    3.6933    4.9215 H           1 ROC       0.0672
     63 H14        -5.5686    5.5230    6.0887 H           1 ROC       0.2101
     64 H15        -4.5220    4.1708    7.8378 H           1 ROC       0.0606
     65 H16        -2.2849    2.5482    6.8253 H           1 ROC       0.1857
     66 H17        -1.8396    4.8781    6.5877 H           1 ROC       0.0449
     67 H18        -2.2118    4.9154    8.3040 H           1 ROC       0.0449
     68 H19        -4.6071    6.3526    8.7162 H           1 ROC       0.0557
     69 H20        -1.6660    7.0933    5.7675 H           1 ROC       0.0557
     70 H21        -5.3218    8.6449    8.5507 H           1 ROC       0.0599
     71 H22        -2.3434    9.3999    5.6831 H           1 ROC       0.0599
     72 H23        -4.1675   10.1907    7.0824 H           1 ROC       0.0559
     73 H24        -5.6678    2.2026    3.8064 H           1 ROC       0.2057
     74 H25        -6.3946    3.3397    6.4074 H           1 ROC       0.0841
     75 H26        -5.3049    2.0334    6.0115 H           1 ROC       0.0841
     76 H27        -5.8331    4.4134    3.2165 H           1 ROC       0.1100
     77 H28        -6.4659    2.8864    1.5911 H           1 ROC       0.0348
     78 H29        -7.6143    4.1949    1.4561 H           1 ROC       0.0348
     79 H30        -8.5578    1.8830    1.2104 H           1 ROC       0.0309
     80 H31       -10.1303    3.6643    1.7780 H           1 ROC       0.0268
     81 H32        -9.8020    3.4833    3.5013 H           1 ROC       0.0268
     82 H33       -11.1351    1.4187    1.6926 H           1 ROC       0.0265
     83 H34       -11.8861    2.3462    2.9960 H           1 ROC       0.0265
     84 H35       -11.3303   -0.0098    3.6842 H           1 ROC       0.0265
     85 H36       -10.5359    1.1966    4.6981 H           1 ROC       0.0265
     86 H37        -9.3034   -0.4026    2.4029 H           1 ROC       0.0270
     87 H38        -8.9255   -0.5945    4.1107 H           1 ROC       0.0270
     88 H39        -7.1957    0.6449    2.7231 H           1 ROC       0.0355
     89 H40        -8.3178    2.2118    5.0883 H           1 ROC       0.0818
     90 H41        -7.1619    0.8896    5.1257 H           1 ROC       0.0818
     91 H42        -7.6272    6.0554    2.4799 H           1 ROC       0.1859
     92 H43        -9.3790    9.0396    2.8536 H           1 ROC       0.0254
     93 H44        -9.5053    7.5895    1.8476 H           1 ROC       0.0254
     94 H45        -7.9340    8.3551    2.1038 H           1 ROC       0.0254
     95 H46        -8.2267    8.9201    5.1511 H           1 ROC       0.0254
     96 H47        -6.7859    8.2023    4.4168 H           1 ROC       0.0254
     97 H48        -7.5941    7.3874    5.7582 H           1 ROC       0.0254
     98 H49       -10.6189    7.8061    4.6418 H           1 ROC       0.0254
     99 H50        -9.9603    6.3719    5.4165 H           1 ROC       0.0254
    100 H51       -10.6367    6.2549    3.7848 H           1 ROC       0.0254
@<TRIPOS>BOND
     1     1     2   2
     2     1     4   1
     3    13     1  am
     4     4     3  ar
     5     3    12  ar
     6     4     5  ar
     7     5     6  ar
     8     6    11  ar
     9     7     8  ar
    10    11     7  ar
    11     9     8  ar
    12    10     9  ar
    13    12    10  ar
    14    12    11  ar
    15    14    13   1
    16    15    14   1
    17    14    17   1
    18    15    16   2
    19    24    15  am
    20    17    18   1
    21    18    19   2
    22    18    20  am
    23    21    22   1
    24    23    21   1
    25    21    33   1
    26    23    24   1
    27    23    25   1
    28    25    26   1
    29    26    27  ar
    30    26    28  ar
    31    27    29  ar
    32    28    30  ar
    33    29    31  ar
    34    30    31  ar
    35    33    32   1
    36    32    34   1
    37    32    44   1
    38    34    35   1
    39    34    37   1
    40    35    36   2
    41    35    45  am
    42    37    38   1
    43    38    39   1
    44    38    43   1
    45    39    40   1
    46    40    41   1
    47    41    42   1
    48    42    43   1
    49    43    44   1
    50    45    46   1
    51    46    47   1
    52    46    48   1
    53    46    49   1
    54     5    50   1
    55     6    51   1
    56     7    52   1
    57     8    53   1
    58     9    54   1
    59    10    55   1
    60    13    56   1
    61    14    57   1
    62    17    58   1
    63    17    59   1
    64    20    60   1
    65    20    61   1
    66    21    62   1
    67    22    63   1
    68    23    64   1
    69    24    65   1
    70    25    66   1
    71    25    67   1
    72    27    68   1
    73    28    69   1
    74    29    70   1
    75    30    71   1
    76    31    72   1
    77    32    73   1
    78    33    74   1
    79    33    75   1
    80    34    76   1
    81    37    77   1
    82    37    78   1
    83    38    79   1
    84    39    80   1
    85    39    81   1
    86    40    82   1
    87    40    83   1
    88    41    84   1
    89    41    85   1
    90    42    86   1
    91    42    87   1
    92    43    88   1
    93    44    89   1
    94    44    90   1
    95    45    91   1
    96    47    92   1
    97    47    93   1
    98    47    94   1
    99    48    95   1
   100    48    96   1
   101    48    97   1
   102    49    98   1
   103    49    99   1
   104    49   100   1
@<TRIPOS>SUBSTRUCTURE
     1  ROC      1

