@<TRIPOS>MOLECULE
3pww_ligand_065
   100   104
SMALL
GAST_HUCK
****
This file was generated by PARSER (from files_GN.cpp)

@<TRIPOS>ATOM
      1 C          -2.7481    3.7466    6.4283 C.2         1 ROC       0.2293
      2 O          -3.2867    3.9828    5.3460 O.2         1 ROC      -0.3762
      3 N1         -2.1895    6.0578    6.5907 N.ar        1 ROC      -0.2737
      4 C2         -2.2583    4.8220    7.1696 C.ar        1 ROC       0.1219
      5 C3         -1.8169    4.7101    8.5105 C.ar        1 ROC      -0.0136
      6 C4         -1.3467    5.8459    9.1985 C.ar        1 ROC      -0.0314
      7 C5         -0.8454    8.2696    9.2061 C.ar        1 ROC      -0.0444
      8 C6         -0.8170    9.4963    8.5206 C.ar        1 ROC      -0.0546
      9 C7         -1.2347    9.5644    7.1755 C.ar        1 ROC      -0.0545
     10 C8         -1.6908    8.4086    6.5190 C.ar        1 ROC      -0.0370
     11 C4A        -1.3018    7.1004    8.5556 C.ar        1 ROC       0.0097
     12 C8A        -1.7354    7.1786    7.2078 C.ar        1 ROC       0.0527
     13 N          -2.6374    2.4844    6.8397 N.am        1 ROC      -0.2600
     14 CA         -3.1762    1.3021    6.2101 C.3         1 ROC       0.1473
     15 C1         -4.5802    1.0762    6.5357 C.2         1 ROC       0.2045
     16 O1         -5.1229    1.7442    7.4072 O.2         1 ROC      -0.3943
     17 CB         -2.2986    0.0650    6.6005 C.3         1 ROC       0.0773
     18 CG         -1.0185   -0.0328    5.9226 C.2         1 ROC       0.1780
     19 OD1        -0.7948    0.5565    4.8729 O.2         1 ROC      -0.3970
     20 ND2        -0.0722   -0.8329    6.3651 N.am        1 ROC      -0.3007
     21 C9         -6.8710   -1.6482    6.2643 C.3         1 ROC       0.1194
     22 O2         -7.5487   -2.3308    5.2027 O.3         1 ROC      -0.3840
     23 CA1        -6.6839   -0.1087    5.9427 C.3         1 ROC       0.0823
     24 N2         -5.2824    0.2122    5.8113 N.am        1 ROC      -0.2772
     25 CB1        -7.4249    0.3941    4.6543 C.3         1 ROC       0.0066
     26 CG1        -6.8820    1.6397    4.0268 C.ar        1 ROC      -0.0408
     27 CD1        -6.5392    2.7706    4.8182 C.ar        1 ROC      -0.0603
     28 CD2        -6.6426    1.6965    2.6301 C.ar        1 ROC      -0.0603
     29 CE1        -5.9456    3.9039    4.2231 C.ar        1 ROC      -0.0686
     30 CE2        -6.0610    2.8349    2.0391 C.ar        1 ROC      -0.0686
     31 CZ         -5.6943    3.9378    2.8413 C.ar        1 ROC      -0.0687
     32 N11        -7.1207   -1.6642    8.9574 N.4         1 ROC       0.2562
     33 CM         -7.6721   -1.9573    7.5771 C.3         1 ROC      -0.0008
     34 C21        -8.1291   -1.0382    9.8974 C.3         1 ROC       0.0688
     35 CC         -8.7100    0.2488    9.4847 C.2         1 ROC       0.2251
     36 O3         -8.0916    0.9762    8.7160 O.2         1 ROC      -0.3909
     37 C31        -7.5995   -0.9993   11.3675 C.3         1 ROC       0.0113
     38 C3A        -6.1418   -0.4757   11.5377 C.3         1 ROC      -0.0261
     39 C41        -6.0133    1.0785   11.5360 C.3         1 ROC      -0.0494
     40 C51        -4.5444    1.5503   11.6784 C.3         1 ROC      -0.0528
     41 C61        -3.6150    0.8916   10.6234 C.3         1 ROC      -0.0526
     42 C71        -3.7297   -0.6547   10.6509 C.3         1 ROC      -0.0451
     43 C7A        -5.1959   -1.1691   10.5084 C.3         1 ROC       0.0024
     44 C81        -5.7477   -1.0756    9.0554 C.3         1 ROC      -0.0266
     45 N3         -9.9465    0.5572    9.8742 N.am        1 ROC      -0.2771
     46 CD        -10.7643    1.6782    9.4675 C.3         1 ROC       0.0448
     47 C11       -12.1195    1.5234   10.2239 C.3         1 ROC      -0.0396
     48 C22       -11.0389    1.6352    7.9292 C.3         1 ROC      -0.0396
     49 C32       -10.1152    3.0398    9.8648 C.3         1 ROC      -0.0396
     50 H1         -1.8494    3.8195    9.0099 H           1 ROC       0.0729
     51 H2         -1.0451    5.7500   10.1720 H           1 ROC       0.0774
     52 H3         -0.5333    8.2363   10.1801 H           1 ROC       0.0657
     53 H4         -0.4948   10.3427    8.9954 H           1 ROC       0.0652
     54 H5         -1.2098   10.4583    6.6809 H           1 ROC       0.0657
     55 H6         -1.9884    8.4638    5.5411 H           1 ROC       0.0653
     56 H7         -2.1555    2.3360    7.6692 H           1 ROC       0.1882
     57 H8         -3.1194    1.4326    5.1306 H           1 ROC       0.0826
     58 H9         -2.8323   -0.8608    6.3730 H           1 ROC       0.0551
     59 H10        -2.1306    0.0866    7.6820 H           1 ROC       0.0551
     60 H11         0.7698   -0.8917    5.8813 H           1 ROC       0.1814
     61 H12        -0.1974   -1.3513    7.1783 H           1 ROC       0.1814
     62 H13        -5.9020   -2.1524    6.3319 H           1 ROC       0.0672
     63 H14        -7.4399   -3.2882    5.3874 H           1 ROC       0.2101
     64 H15        -7.1147    0.4556    6.7800 H           1 ROC       0.0606
     65 H16        -4.7913   -0.2429    5.1020 H           1 ROC       0.1857
     66 H17        -8.4700    0.5798    4.9114 H           1 ROC       0.0449
     67 H18        -7.4195   -0.4027    3.8973 H           1 ROC       0.0449
     68 H19        -6.6892    2.7622    5.8323 H           1 ROC       0.0557
     69 H20        -6.8803    0.8984    2.0295 H           1 ROC       0.0557
     70 H21        -5.6737    4.6999    4.8106 H           1 ROC       0.0599
     71 H22        -5.8827    2.8533    1.0319 H           1 ROC       0.0599
     72 H23        -5.2557    4.7610    2.4114 H           1 ROC       0.0559
     73 H24        -6.9857   -2.6041    9.3594 H           1 ROC       0.2057
     74 H25        -7.8672   -3.0328    7.5962 H           1 ROC       0.0841
     75 H26        -8.6551   -1.5029    7.4447 H           1 ROC       0.0841
     76 H27        -8.9591   -1.7553    9.9261 H           1 ROC       0.1100
     77 H28        -7.6186   -2.0257   11.7519 H           1 ROC       0.0348
     78 H29        -8.2718   -0.4214   12.0107 H           1 ROC       0.0348
     79 H30        -5.8164   -0.7975   12.5331 H           1 ROC       0.0309
     80 H31        -6.5951    1.4920   12.3654 H           1 ROC       0.0268
     81 H32        -6.4163    1.4947   10.6144 H           1 ROC       0.0268
     82 H33        -4.1791    1.3007   12.6777 H           1 ROC       0.0265
     83 H34        -4.5020    2.6382   11.5688 H           1 ROC       0.0265
     84 H35        -2.5796    1.1783   10.8354 H           1 ROC       0.0265
     85 H36        -3.8703    1.2654    9.6266 H           1 ROC       0.0265
     86 H37        -3.3282   -1.0111   11.6059 H           1 ROC       0.0270
     87 H38        -3.1036   -1.0791    9.8611 H           1 ROC       0.0270
     88 H39        -5.1693   -2.2368   10.7583 H           1 ROC       0.0355
     89 H40        -5.7514   -0.0416    8.7168 H           1 ROC       0.0818
     90 H41        -5.0577   -1.6428    8.4294 H           1 ROC       0.0818
     91 H42       -10.3660   -0.0696   10.4937 H           1 ROC       0.1859
     92 H43       -12.8071    2.3347    9.9674 H           1 ROC       0.0254
     93 H44       -11.9594    1.5407   11.3067 H           1 ROC       0.0254
     94 H45       -12.5984    0.5743    9.9674 H           1 ROC       0.0254
     95 H46       -11.7500    2.4123    7.6418 H           1 ROC       0.0254
     96 H47       -11.4512    0.6673    7.6392 H           1 ROC       0.0254
     97 H48       -10.1252    1.7970    7.3567 H           1 ROC       0.0254
     98 H49       -10.7914    3.8692    9.6378 H           1 ROC       0.0254
     99 H50        -9.1871    3.2134    9.3199 H           1 ROC       0.0254
    100 H51        -9.8906    3.0622   10.9326 H           1 ROC       0.0254
@<TRIPOS>BOND
     1     1     2   2
     2     1     4   1
     3    13     1  am
     4     4     3  ar
     5     3    12  ar
     6     4     5  ar
     7     5     6  ar
     8     6    11  ar
     9     7     8  ar
    10    11     7  ar
    11     9     8  ar
    12    10     9  ar
    13    12    10  ar
    14    12    11  ar
    15    14    13   1
    16    15    14   1
    17    14    17   1
    18    15    16   2
    19    24    15  am
    20    17    18   1
    21    18    19   2
    22    18    20  am
    23    21    22   1
    24    23    21   1
    25    21    33   1
    26    23    24   1
    27    23    25   1
    28    25    26   1
    29    26    27  ar
    30    26    28  ar
    31    27    29  ar
    32    28    30  ar
    33    29    31  ar
    34    30    31  ar
    35    33    32   1
    36    32    34   1
    37    32    44   1
    38    34    35   1
    39    34    37   1
    40    35    36   2
    41    35    45  am
    42    37    38   1
    43    38    39   1
    44    38    43   1
    45    39    40   1
    46    40    41   1
    47    41    42   1
    48    42    43   1
    49    43    44   1
    50    45    46   1
    51    46    47   1
    52    46    48   1
    53    46    49   1
    54     5    50   1
    55     6    51   1
    56     7    52   1
    57     8    53   1
    58     9    54   1
    59    10    55   1
    60    13    56   1
    61    14    57   1
    62    17    58   1
    63    17    59   1
    64    20    60   1
    65    20    61   1
    66    21    62   1
    67    22    63   1
    68    23    64   1
    69    24    65   1
    70    25    66   1
    71    25    67   1
    72    27    68   1
    73    28    69   1
    74    29    70   1
    75    30    71   1
    76    31    72   1
    77    32    73   1
    78    33    74   1
    79    33    75   1
    80    34    76   1
    81    37    77   1
    82    37    78   1
    83    38    79   1
    84    39    80   1
    85    39    81   1
    86    40    82   1
    87    40    83   1
    88    41    84   1
    89    41    85   1
    90    42    86   1
    91    42    87   1
    92    43    88   1
    93    44    89   1
    94    44    90   1
    95    45    91   1
    96    47    92   1
    97    47    93   1
    98    47    94   1
    99    48    95   1
   100    48    96   1
   101    48    97   1
   102    49    98   1
   103    49    99   1
   104    49   100   1
@<TRIPOS>SUBSTRUCTURE
     1  ROC      1

