@<TRIPOS>MOLECULE
3pww_ligand_032
   100   104
SMALL
GAST_HUCK
****
This file was generated by PARSER (from files_GN.cpp)

@<TRIPOS>ATOM
      1 C          -2.4370    2.6440   11.3514 C.2         1 ROC       0.2293
      2 O          -3.1067    3.5872   11.7614 O.2         1 ROC      -0.3762
      3 N1         -4.2898    1.2100   11.6943 N.ar        1 ROC      -0.2737
      4 C2         -2.9524    1.3629   11.4823 C.ar        1 ROC       0.1219
      5 C3         -2.1561    0.1915   11.4159 C.ar        1 ROC      -0.0136
      6 C4         -2.7522   -1.0709   11.5630 C.ar        1 ROC      -0.0314
      7 C5         -4.7967   -2.4254   11.8932 C.ar        1 ROC      -0.0444
      8 C6         -6.1905   -2.4826   12.0844 C.ar        1 ROC      -0.0546
      9 C7         -6.9392   -1.2933   12.1561 C.ar        1 ROC      -0.0545
     10 C8         -6.3025   -0.0467   12.0368 C.ar        1 ROC      -0.0370
     11 C4A        -4.1472   -1.1824   11.7627 C.ar        1 ROC       0.0097
     12 C8A        -4.9105    0.0132   11.8293 C.ar        1 ROC       0.0527
     13 N          -1.2745    2.8766   10.7480 N.am        1 ROC      -0.2600
     14 CA         -0.6551    4.1587   10.5461 C.3         1 ROC       0.1473
     15 C1         -1.4895    5.0130    9.7079 C.2         1 ROC       0.2045
     16 O1         -1.7669    6.1372   10.1077 O.2         1 ROC      -0.3943
     17 CB          0.7792    3.9993    9.9529 C.3         1 ROC       0.0773
     18 CG          1.6823    5.1241   10.1519 C.2         1 ROC       0.1780
     19 OD1         1.3838    6.0999   10.8244 O.2         1 ROC      -0.3970
     20 ND2         2.8974    5.0961    9.6527 N.am        1 ROC      -0.3007
     21 C9         -3.9846    4.0573    7.1755 C.3         1 ROC       0.1194
     22 O2         -3.3401    3.4868    6.0238 O.3         1 ROC      -0.3840
     23 CA1        -3.0844    5.1694    7.8286 C.3         1 ROC       0.0823
     24 N2         -2.0429    4.5251    8.5992 N.am        1 ROC      -0.2772
     25 CB1        -2.4172    6.2081    6.8529 C.3         1 ROC       0.0066
     26 CG1        -3.1027    7.4915    6.5017 C.ar        1 ROC      -0.0408
     27 CD1        -2.7642    8.1396    5.2863 C.ar        1 ROC      -0.0603
     28 CD2        -3.8852    8.2138    7.4363 C.ar        1 ROC      -0.0603
     29 CE1        -3.2129    9.4417    5.0000 C.ar        1 ROC      -0.0686
     30 CE2        -4.3694    9.5041    7.1357 C.ar        1 ROC      -0.0686
     31 CZ         -4.0290   10.1191    5.9179 C.ar        1 ROC      -0.0687
     32 N11        -6.6737    3.8665    7.5626 N.4         1 ROC       0.2562
     33 CM         -5.4716    4.4760    6.8380 C.3         1 ROC      -0.0008
     34 C21        -6.5136    2.4941    8.1716 C.3         1 ROC       0.0688
     35 CC         -5.9894    1.4578    7.2782 C.2         1 ROC       0.2251
     36 O3         -6.0892    1.5850    6.0658 O.2         1 ROC      -0.3909
     37 C31        -7.7934    2.0301    8.9428 C.3         1 ROC       0.0113
     38 C3A        -9.1161    2.1391    8.1373 C.3         1 ROC      -0.0261
     39 C41        -9.3239    0.9607    7.1335 C.3         1 ROC      -0.0494
     40 C51       -10.6527    1.1023    6.3528 C.3         1 ROC      -0.0528
     41 C61       -10.7225    2.4688    5.6266 C.3         1 ROC      -0.0526
     42 C71       -10.5304    3.6525    6.6133 C.3         1 ROC      -0.0451
     43 C7A        -9.2358    3.5551    7.4874 C.3         1 ROC       0.0024
     44 C81        -7.9344    3.9799    6.7382 C.3         1 ROC      -0.0266
     45 N3         -5.3109    0.4364    7.7899 N.am        1 ROC      -0.2771
     46 CD         -4.5951   -0.6106    7.0960 C.3         1 ROC       0.0448
     47 C11        -3.2923   -0.0314    6.4527 C.3         1 ROC      -0.0396
     48 C22        -5.4900   -1.3132    6.0259 C.3         1 ROC      -0.0396
     49 C32        -4.2070   -1.6632    8.1763 C.3         1 ROC      -0.0396
     50 H1         -1.1431    0.2467   11.2831 H           1 ROC       0.0729
     51 H2         -2.1670   -1.9102   11.5134 H           1 ROC       0.0774
     52 H3         -4.2647   -3.2955   11.8463 H           1 ROC       0.0657
     53 H4         -6.6574   -3.3871   12.1724 H           1 ROC       0.0652
     54 H5         -7.9498   -1.3375   12.2937 H           1 ROC       0.0657
     55 H6         -6.8535    0.8137   12.0956 H           1 ROC       0.0653
     56 H7         -0.7973    2.1103   10.3973 H           1 ROC       0.1882
     57 H8         -0.5542    4.6042   11.5402 H           1 ROC       0.0826
     58 H9          0.7086    3.7879    8.8810 H           1 ROC       0.0551
     59 H10         1.2466    3.1314   10.4222 H           1 ROC       0.0551
     60 H11         3.5019    5.8375    9.8159 H           1 ROC       0.1814
     61 H12         3.1934    4.3469    9.1133 H           1 ROC       0.1814
     62 H13        -4.0152    3.2321    7.8831 H           1 ROC       0.0672
     63 H14        -2.5408    3.0332    6.3722 H           1 ROC       0.2101
     64 H15        -3.7283    5.6975    8.5364 H           1 ROC       0.0606
     65 H16        -1.7853    3.6231    8.3311 H           1 ROC       0.1857
     66 H17        -2.1448    5.6727    5.9377 H           1 ROC       0.0449
     67 H18        -1.4707    6.5340    7.2955 H           1 ROC       0.0449
     68 H19        -2.1363    7.6925    4.6160 H           1 ROC       0.0557
     69 H20        -4.0801    7.8194    8.3578 H           1 ROC       0.0557
     70 H21        -2.9240    9.9090    4.1385 H           1 ROC       0.0599
     71 H22        -4.9441   10.0044    7.8156 H           1 ROC       0.0599
     72 H23        -4.3492   11.0681    5.7171 H           1 ROC       0.0559
     73 H24        -6.8395    4.4622    8.3784 H           1 ROC       0.2057
     74 H25        -5.5997    4.3116    5.7629 H           1 ROC       0.0841
     75 H26        -5.5588    5.5569    6.9702 H           1 ROC       0.0841
     76 H27        -5.7771    2.6178    8.9713 H           1 ROC       0.1100
     77 H28        -7.9012    2.6682    9.8249 H           1 ROC       0.0348
     78 H29        -7.6719    1.0089    9.3168 H           1 ROC       0.0348
     79 H30        -9.9304    2.0514    8.8679 H           1 ROC       0.0309
     80 H31        -9.3378    0.0130    7.6801 H           1 ROC       0.0268
     81 H32        -8.5077    0.9162    6.4126 H           1 ROC       0.0268
     82 H33       -11.4960    1.0092    7.0445 H           1 ROC       0.0265
     83 H34       -10.7308    0.2931    5.6205 H           1 ROC       0.0265
     84 H35       -11.6963    2.5595    5.1361 H           1 ROC       0.0265
     85 H36        -9.9547    2.5045    4.8491 H           1 ROC       0.0265
     86 H37       -11.3975    3.6749    7.2811 H           1 ROC       0.0270
     87 H38       -10.5341    4.5890    6.0512 H           1 ROC       0.0270
     88 H39        -9.3592    4.2775    8.3020 H           1 ROC       0.0355
     89 H40        -7.8417    3.3847    5.8279 H           1 ROC       0.0818
     90 H41        -8.0587    5.0220    6.4316 H           1 ROC       0.0818
     91 H42        -5.2539    0.4140    8.7589 H           1 ROC       0.1859
     92 H43        -2.6969   -0.8213    5.9898 H           1 ROC       0.0254
     93 H44        -2.6796    0.4646    7.2105 H           1 ROC       0.0254
     94 H45        -3.5275    0.7025    5.6809 H           1 ROC       0.0254
     95 H46        -4.9935   -2.2000    5.6230 H           1 ROC       0.0254
     96 H47        -5.7074   -0.6489    5.1878 H           1 ROC       0.0254
     97 H48        -6.4379   -1.6259    6.4721 H           1 ROC       0.0254
     98 H49        -3.6914   -2.5165    7.7313 H           1 ROC       0.0254
     99 H50        -5.1013   -2.0327    8.6867 H           1 ROC       0.0254
    100 H51        -3.5435   -1.2197    8.9201 H           1 ROC       0.0254
@<TRIPOS>BOND
     1     1     2   2
     2     1     4   1
     3    13     1  am
     4     4     3  ar
     5     3    12  ar
     6     4     5  ar
     7     5     6  ar
     8     6    11  ar
     9     7     8  ar
    10    11     7  ar
    11     9     8  ar
    12    10     9  ar
    13    12    10  ar
    14    12    11  ar
    15    14    13   1
    16    15    14   1
    17    14    17   1
    18    15    16   2
    19    24    15  am
    20    17    18   1
    21    18    19   2
    22    18    20  am
    23    21    22   1
    24    23    21   1
    25    21    33   1
    26    23    24   1
    27    23    25   1
    28    25    26   1
    29    26    27  ar
    30    26    28  ar
    31    27    29  ar
    32    28    30  ar
    33    29    31  ar
    34    30    31  ar
    35    33    32   1
    36    32    34   1
    37    32    44   1
    38    34    35   1
    39    34    37   1
    40    35    36   2
    41    35    45  am
    42    37    38   1
    43    38    39   1
    44    38    43   1
    45    39    40   1
    46    40    41   1
    47    41    42   1
    48    42    43   1
    49    43    44   1
    50    45    46   1
    51    46    47   1
    52    46    48   1
    53    46    49   1
    54     5    50   1
    55     6    51   1
    56     7    52   1
    57     8    53   1
    58     9    54   1
    59    10    55   1
    60    13    56   1
    61    14    57   1
    62    17    58   1
    63    17    59   1
    64    20    60   1
    65    20    61   1
    66    21    62   1
    67    22    63   1
    68    23    64   1
    69    24    65   1
    70    25    66   1
    71    25    67   1
    72    27    68   1
    73    28    69   1
    74    29    70   1
    75    30    71   1
    76    31    72   1
    77    32    73   1
    78    33    74   1
    79    33    75   1
    80    34    76   1
    81    37    77   1
    82    37    78   1
    83    38    79   1
    84    39    80   1
    85    39    81   1
    86    40    82   1
    87    40    83   1
    88    41    84   1
    89    41    85   1
    90    42    86   1
    91    42    87   1
    92    43    88   1
    93    44    89   1
    94    44    90   1
    95    45    91   1
    96    47    92   1
    97    47    93   1
    98    47    94   1
    99    48    95   1
   100    48    96   1
   101    48    97   1
   102    49    98   1
   103    49    99   1
   104    49   100   1
@<TRIPOS>SUBSTRUCTURE
     1  ROC      1

