@<TRIPOS>MOLECULE
3pww_ligand_082
   100   104
SMALL
GAST_HUCK
****
This file was generated by PARSER (from files_GN.cpp)

@<TRIPOS>ATOM
      1 C          -3.1634    2.6169    7.1162 C.2         1 ROC       0.2293
      2 O          -2.6968    2.3982    8.2313 O.2         1 ROC      -0.3762
      3 N1         -2.6406    4.9178    7.4256 N.ar        1 ROC      -0.2737
      4 C2         -3.1795    3.9332    6.6482 C.ar        1 ROC       0.1219
      5 C3         -3.7286    4.3235    5.4019 C.ar        1 ROC      -0.0136
      6 C4         -3.6903    5.6708    4.9982 C.ar        1 ROC      -0.0314
      7 C5         -3.0742    8.0107    5.4758 C.ar        1 ROC      -0.0444
      8 C6         -2.5104    8.9558    6.3554 C.ar        1 ROC      -0.0546
      9 C7         -1.9911    8.5414    7.5958 C.ar        1 ROC      -0.0545
     10 C8         -2.0255    7.1817    7.9594 C.ar        1 ROC      -0.0370
     11 C4A        -3.1198    6.6477    5.8369 C.ar        1 ROC       0.0097
     12 C8A        -2.5892    6.2325    7.0854 C.ar        1 ROC       0.0527
     13 N          -3.6217    1.5919    6.3943 N.am        1 ROC      -0.2600
     14 CA         -3.6461    0.1846    6.7102 C.3         1 ROC       0.1473
     15 C1         -4.7029   -0.2216    7.6419 C.2         1 ROC       0.2045
     16 O1         -5.0851   -1.3940    7.6115 O.2         1 ROC      -0.3943
     17 CB         -2.2621   -0.4041    7.1435 C.3         1 ROC       0.0773
     18 CG         -1.1533   -0.2493    6.2130 C.2         1 ROC       0.1780
     19 OD1        -1.2310    0.4452    5.2061 O.2         1 ROC      -0.3970
     20 ND2        -0.0136   -0.8529    6.4559 N.am        1 ROC      -0.3007
     21 C9         -7.1551    1.6003    9.7203 C.3         1 ROC       0.1194
     22 O2         -7.3741    1.8774   11.1117 O.3         1 ROC      -0.3840
     23 CA1        -6.2216    0.3426    9.5327 C.3         1 ROC       0.0823
     24 N2         -5.2514    0.6266    8.5081 N.am        1 ROC      -0.2772
     25 CB1        -5.4878   -0.2231   10.7982 C.3         1 ROC       0.0066
     26 CG1        -4.3046    0.5420   11.3076 C.ar        1 ROC      -0.0408
     27 CD1        -3.0030   -0.0091   11.2142 C.ar        1 ROC      -0.0603
     28 CD2        -4.4589    1.7854   11.9670 C.ar        1 ROC      -0.0603
     29 CE1        -1.8912    0.6639   11.7488 C.ar        1 ROC      -0.0686
     30 CE2        -3.3525    2.4627   12.5015 C.ar        1 ROC      -0.0686
     31 CZ         -2.0667    1.9006   12.4017 C.ar        1 ROC      -0.0687
     32 N11        -8.8401    1.6520    7.5811 N.4         1 ROC       0.2562
     33 CM         -8.5759    1.4686    9.0609 C.3         1 ROC      -0.0008
     34 C21        -9.6631    0.5616    6.9256 C.3         1 ROC       0.0688
     35 CC         -9.0600   -0.7586    6.7521 C.2         1 ROC       0.2251
     36 O3         -7.8431   -0.8917    6.8410 O.2         1 ROC      -0.3909
     37 C31       -10.2709    1.1176    5.5943 C.3         1 ROC       0.0113
     38 C3A        -9.2412    1.7857    4.6356 C.3         1 ROC      -0.0261
     39 C41        -8.3875    0.7746    3.8076 C.3         1 ROC      -0.0494
     40 C51        -7.3850    1.4979    2.8738 C.3         1 ROC      -0.0528
     41 C61        -6.4737    2.4665    3.6664 C.3         1 ROC      -0.0526
     42 C71        -7.3015    3.4878    4.4906 C.3         1 ROC      -0.0451
     43 C7A        -8.3615    2.8179    5.4147 C.3         1 ROC       0.0024
     44 C81        -7.7503    2.2069    6.7121 C.3         1 ROC      -0.0266
     45 N3         -9.8381   -1.8055    6.4878 N.am        1 ROC      -0.2771
     46 CD         -9.4721   -3.1823    6.2548 C.3         1 ROC       0.0448
     47 C11       -10.7953   -3.9340    5.8987 C.3         1 ROC      -0.0396
     48 C22        -8.8593   -3.8299    7.5369 C.3         1 ROC      -0.0396
     49 C32        -8.4855   -3.3119    5.0511 C.3         1 ROC      -0.0396
     50 H1         -4.1556    3.6422    4.7745 H           1 ROC       0.0729
     51 H2         -4.0875    5.9289    4.0914 H           1 ROC       0.0774
     52 H3         -3.4510    8.3284    4.5791 H           1 ROC       0.0657
     53 H4         -2.4808    9.9437    6.0930 H           1 ROC       0.0652
     54 H5         -1.5857    9.2336    8.2318 H           1 ROC       0.0657
     55 H6         -1.6448    6.8931    8.8630 H           1 ROC       0.0653
     56 H7         -3.9525    1.7974    5.5033 H           1 ROC       0.1882
     57 H8         -3.9059   -0.2947    5.7604 H           1 ROC       0.0826
     58 H9         -2.3835   -1.4788    7.3237 H           1 ROC       0.0551
     59 H10        -1.9639    0.0482    8.0942 H           1 ROC       0.0551
     60 H11         0.7312   -0.7370    5.8480 H           1 ROC       0.1814
     61 H12         0.0778   -1.4292    7.2343 H           1 ROC       0.1814
     62 H13        -6.6507    2.4960    9.3293 H           1 ROC       0.0672
     63 H14        -7.3342    2.8624   11.1584 H           1 ROC       0.2101
     64 H15        -6.8546   -0.4795    9.1968 H           1 ROC       0.0606
     65 H16        -4.9005    1.5354    8.5025 H           1 ROC       0.1857
     66 H17        -5.1604   -1.2419   10.5567 H           1 ROC       0.0449
     67 H18        -6.2093   -0.3509   11.6126 H           1 ROC       0.0449
     68 H19        -2.8512   -0.9170   10.7617 H           1 ROC       0.0557
     69 H20        -5.3865    2.1929   12.0915 H           1 ROC       0.0557
     70 H21        -0.9587    0.2526   11.6825 H           1 ROC       0.0599
     71 H22        -3.4875    3.3461   12.9805 H           1 ROC       0.0599
     72 H23        -1.2638    2.3867   12.8090 H           1 ROC       0.0559
     73 H24        -9.5017    2.4356    7.5916 H           1 ROC       0.2057
     74 H25        -9.2010    2.2359    9.5340 H           1 ROC       0.0841
     75 H26        -8.9908    0.5165    9.4098 H           1 ROC       0.0841
     76 H27       -10.5257    0.4013    7.5885 H           1 ROC       0.1100
     77 H28       -11.0112    1.8772    5.8677 H           1 ROC       0.0348
     78 H29       -10.8198    0.3380    5.0594 H           1 ROC       0.0348
     79 H30        -9.8300    2.3552    3.9085 H           1 ROC       0.0309
     80 H31        -9.0517    0.1537    3.2014 H           1 ROC       0.0268
     81 H32        -7.8250    0.1154    4.4669 H           1 ROC       0.0268
     82 H33        -7.9355    2.0555    2.1080 H           1 ROC       0.0265
     83 H34        -6.7617    0.7565    2.3665 H           1 ROC       0.0265
     84 H35        -5.8271    3.0046    2.9670 H           1 ROC       0.0265
     85 H36        -5.8357    1.8878    4.3393 H           1 ROC       0.0265
     86 H37        -7.8144    4.1529    3.7913 H           1 ROC       0.0270
     87 H38        -6.6210    4.1067    5.0824 H           1 ROC       0.0270
     88 H39        -9.0216    3.6279    5.7502 H           1 ROC       0.0355
     89 H40        -7.0109    1.4401    6.4755 H           1 ROC       0.0818
     90 H41        -7.2389    3.0175    7.2393 H           1 ROC       0.0818
     91 H42       -10.7847   -1.6075    6.4452 H           1 ROC       0.1859
     92 H43       -10.6053   -4.9939    5.7131 H           1 ROC       0.0254
     93 H44       -11.2499   -3.5066    5.0015 H           1 ROC       0.0254
     94 H45       -11.5151   -3.8537    6.7167 H           1 ROC       0.0254
     95 H46        -8.7075   -4.9028    7.3953 H           1 ROC       0.0254
     96 H47        -9.5238   -3.6850    8.3920 H           1 ROC       0.0254
     97 H48        -7.8919   -3.3845    7.7743 H           1 ROC       0.0254
     98 H49        -8.3019   -4.3638    4.8198 H           1 ROC       0.0254
     99 H50        -7.5252   -2.8447    5.2764 H           1 ROC       0.0254
    100 H51        -8.9034   -2.8291    4.1649 H           1 ROC       0.0254
@<TRIPOS>BOND
     1     1     2   2
     2     1     4   1
     3    13     1  am
     4     4     3  ar
     5     3    12  ar
     6     4     5  ar
     7     5     6  ar
     8     6    11  ar
     9     7     8  ar
    10    11     7  ar
    11     9     8  ar
    12    10     9  ar
    13    12    10  ar
    14    12    11  ar
    15    14    13   1
    16    15    14   1
    17    14    17   1
    18    15    16   2
    19    24    15  am
    20    17    18   1
    21    18    19   2
    22    18    20  am
    23    21    22   1
    24    23    21   1
    25    21    33   1
    26    23    24   1
    27    23    25   1
    28    25    26   1
    29    26    27  ar
    30    26    28  ar
    31    27    29  ar
    32    28    30  ar
    33    29    31  ar
    34    30    31  ar
    35    33    32   1
    36    32    34   1
    37    32    44   1
    38    34    35   1
    39    34    37   1
    40    35    36   2
    41    35    45  am
    42    37    38   1
    43    38    39   1
    44    38    43   1
    45    39    40   1
    46    40    41   1
    47    41    42   1
    48    42    43   1
    49    43    44   1
    50    45    46   1
    51    46    47   1
    52    46    48   1
    53    46    49   1
    54     5    50   1
    55     6    51   1
    56     7    52   1
    57     8    53   1
    58     9    54   1
    59    10    55   1
    60    13    56   1
    61    14    57   1
    62    17    58   1
    63    17    59   1
    64    20    60   1
    65    20    61   1
    66    21    62   1
    67    22    63   1
    68    23    64   1
    69    24    65   1
    70    25    66   1
    71    25    67   1
    72    27    68   1
    73    28    69   1
    74    29    70   1
    75    30    71   1
    76    31    72   1
    77    32    73   1
    78    33    74   1
    79    33    75   1
    80    34    76   1
    81    37    77   1
    82    37    78   1
    83    38    79   1
    84    39    80   1
    85    39    81   1
    86    40    82   1
    87    40    83   1
    88    41    84   1
    89    41    85   1
    90    42    86   1
    91    42    87   1
    92    43    88   1
    93    44    89   1
    94    44    90   1
    95    45    91   1
    96    47    92   1
    97    47    93   1
    98    47    94   1
    99    48    95   1
   100    48    96   1
   101    48    97   1
   102    49    98   1
   103    49    99   1
   104    49   100   1
@<TRIPOS>SUBSTRUCTURE
     1  ROC      1

