@<TRIPOS>MOLECULE
3pxf_ligand_025
    33    35
SMALL
GAST_HUCK
****
This file was generated by PARSER (from files_GN.cpp)

@<TRIPOS>ATOM
      1 C1        113.0417  135.5877   61.7877 C.ar        1 MOL       0.0730
      2 C2        111.7772  135.5848   61.1469 C.ar        1 MOL      -0.0412
      3 C3        111.1010  134.3907   60.8756 C.ar        1 MOL      -0.0768
      4 C4        111.6987  133.1729   61.2044 C.ar        1 MOL      -0.0703
      5 C5        112.9677  133.1405   61.8210 C.ar        1 MOL      -0.0263
      6 C6        113.5092  131.8722   62.1146 C.ar        1 MOL      -0.0593
      7 C7        114.7566  131.7636   62.7312 C.ar        1 MOL      -0.0629
      8 C8        115.4429  132.9218   63.1133 C.ar        1 MOL      -0.0420
      9 N         113.6722  136.7764   61.9376 N.pl3       1 MOL      -0.2710
     10 S         115.7836  135.4925   63.7194 S.o2        1 MOL      -0.1624
     11 C9        114.9045  134.2112   62.8905 C.ar        1 MOL       0.0589
     12 C10       113.6710  134.3484   62.1581 C.ar        1 MOL       0.0329
     13 C11       113.1989  137.9706   62.4221 C.ar        1 MOL       0.0604
     14 C12       111.9689  138.1056   63.1192 C.ar        1 MOL      -0.0391
     15 C13       111.6473  139.3012   63.7843 C.ar        1 MOL      -0.0719
     16 C14       112.5538  140.3690   63.7982 C.ar        1 MOL      -0.0738
     17 C15       113.7729  140.2545   63.1041 C.ar        1 MOL      -0.0719
     18 C16       114.0891  139.0661   62.4229 C.ar        1 MOL      -0.0391
     19 O1        116.8385  134.9001   64.9043 O.co2       1 MOL      -0.4795
     20 O2        114.6877  136.5163   64.4981 O.co2       1 MOL      -0.4795
     21 O3        116.7130  136.3659   62.6115 O.co2       1 MOL      -0.4795
     22 H1        111.3539  136.4558   60.8152 H           1 MOL       0.0480
     23 H2        110.1886  134.4085   60.4138 H           1 MOL       0.0576
     24 H3        111.2044  132.3067   60.9759 H           1 MOL       0.0477
     25 H4        112.9998  131.0139   61.8871 H           1 MOL       0.0595
     26 H5        115.1460  130.8407   62.9369 H           1 MOL       0.0613
     27 H6        116.3333  132.7905   63.5971 H           1 MOL       0.0604
     28 H7        114.6341  136.7368   61.8568 H           1 MOL       0.2117
     29 H8        111.3220  137.3214   63.2010 H           1 MOL       0.0532
     30 H9        110.7622  139.3774   64.2890 H           1 MOL       0.0586
     31 H10       112.3365  141.2252   64.3122 H           1 MOL       0.0516
     32 H11       114.4329  141.0334   63.1171 H           1 MOL       0.0586
     33 H12       115.0034  138.9888   61.9675 H           1 MOL       0.0532
@<TRIPOS>BOND
     1     1     2  ar
     2     1     9   1
     3     1    12  ar
     4     2     3  ar
     5     3     4  ar
     6     4     5  ar
     7     5     6  ar
     8     5    12  ar
     9     6     7  ar
    10     7     8  ar
    11     8    11  ar
    12     9    13   1
    13    11    10   1
    14    10    19  ar
    15    10    20  ar
    16    10    21  ar
    17    11    12  ar
    18    13    14  ar
    19    13    18  ar
    20    14    15  ar
    21    15    16  ar
    22    16    17  ar
    23    17    18  ar
    24     2    22   1
    25     3    23   1
    26     4    24   1
    27     6    25   1
    28     7    26   1
    29     8    27   1
    30     9    28   1
    31    14    29   1
    32    15    30   1
    33    16    31   1
    34    17    32   1
    35    18    33   1
@<TRIPOS>SUBSTRUCTURE
     1  MOL      1

