@<TRIPOS>MOLECULE
3pxf_ligand_016
    33    35
SMALL
GAST_HUCK
****
This file was generated by PARSER (from files_GN.cpp)

@<TRIPOS>ATOM
      1 C1        117.2286  135.2052   64.1269 C.ar        1 MOL       0.0730
      2 C2        117.5560  135.8871   65.3287 C.ar        1 MOL      -0.0412
      3 C3        118.4881  135.3611   66.2256 C.ar        1 MOL      -0.0768
      4 C4        119.0872  134.1307   65.9527 C.ar        1 MOL      -0.0703
      5 C5        118.6957  133.3943   64.8076 C.ar        1 MOL      -0.0263
      6 C6        119.2814  132.1138   64.6307 C.ar        1 MOL      -0.0593
      7 C7        118.8872  131.3015   63.5719 C.ar        1 MOL      -0.0629
      8 C8        117.8834  131.7372   62.7040 C.ar        1 MOL      -0.0420
      9 N         116.6146  135.9212   63.1546 N.pl3       1 MOL      -0.2710
     10 S         115.7841  133.1443   61.9016 S.o2        1 MOL      -0.1624
     11 C9        117.2726  133.0008   62.8436 C.ar        1 MOL       0.0589
     12 C10       117.7166  133.8851   63.8836 C.ar        1 MOL       0.0329
     13 C11       115.5993  136.8091   63.2799 C.ar        1 MOL       0.0604
     14 C12       114.5196  136.5212   64.1550 C.ar        1 MOL      -0.0391
     15 C13       113.3846  137.3490   64.1851 C.ar        1 MOL      -0.0719
     16 C14       113.3290  138.4872   63.3595 C.ar        1 MOL      -0.0738
     17 C15       114.4078  138.7998   62.5094 C.ar        1 MOL      -0.0719
     18 C16       115.5322  137.9558   62.4606 C.ar        1 MOL      -0.0391
     19 O1        115.6875  131.9419   60.6950 O.co2       1 MOL      -0.4795
     20 O2        115.5844  134.5940   61.0364 O.co2       1 MOL      -0.4795
     21 O3        114.4588  132.9541   62.9588 O.co2       1 MOL      -0.4795
     22 H1        117.2078  136.8387   65.5101 H           1 MOL       0.0480
     23 H2        118.7484  135.8794   67.0654 H           1 MOL       0.0576
     24 H3        119.7810  133.7686   66.6023 H           1 MOL       0.0477
     25 H4        119.9901  131.7553   65.2921 H           1 MOL       0.0595
     26 H5        119.2944  130.3671   63.4649 H           1 MOL       0.0613
     27 H6        117.5877  131.0619   61.9962 H           1 MOL       0.0604
     28 H7        116.9405  135.7755   62.2488 H           1 MOL       0.2117
     29 H8        114.5441  135.6769   64.7504 H           1 MOL       0.0532
     30 H9        112.6037  137.1185   64.8068 H           1 MOL       0.0586
     31 H10       112.4960  139.0790   63.3729 H           1 MOL       0.0516
     32 H11       114.3657  139.6340   61.9284 H           1 MOL       0.0586
     33 H12       116.3087  138.1854   61.8371 H           1 MOL       0.0532
@<TRIPOS>BOND
     1     1     2  ar
     2     1     9   1
     3     1    12  ar
     4     2     3  ar
     5     3     4  ar
     6     4     5  ar
     7     5     6  ar
     8     5    12  ar
     9     6     7  ar
    10     7     8  ar
    11     8    11  ar
    12     9    13   1
    13    11    10   1
    14    10    19  ar
    15    10    20  ar
    16    10    21  ar
    17    11    12  ar
    18    13    14  ar
    19    13    18  ar
    20    14    15  ar
    21    15    16  ar
    22    16    17  ar
    23    17    18  ar
    24     2    22   1
    25     3    23   1
    26     4    24   1
    27     6    25   1
    28     7    26   1
    29     8    27   1
    30     9    28   1
    31    14    29   1
    32    15    30   1
    33    16    31   1
    34    17    32   1
    35    18    33   1
@<TRIPOS>SUBSTRUCTURE
     1  MOL      1

