@<TRIPOS>MOLECULE
3pxf_ligand_078
    33    35
SMALL
GAST_HUCK
****
This file was generated by PARSER (from files_GN.cpp)

@<TRIPOS>ATOM
      1 C1        112.7691  137.2891   63.0446 C.ar        1 MOL       0.0730
      2 C2        112.3610  135.9420   62.8838 C.ar        1 MOL      -0.0412
      3 C3        111.4119  135.5884   61.9221 C.ar        1 MOL      -0.0768
      4 C4        110.9166  136.5650   61.0613 C.ar        1 MOL      -0.0703
      5 C5        111.3711  137.8991   61.1553 C.ar        1 MOL      -0.0263
      6 C6        110.9287  138.7881   60.1515 C.ar        1 MOL      -0.0593
      7 C7        111.3530  140.1107   60.1501 C.ar        1 MOL      -0.0629
      8 C8        112.1479  140.5825   61.1954 C.ar        1 MOL      -0.0420
      9 N         113.7079  137.5138   64.0073 N.pl3       1 MOL      -0.2710
     10 S         113.3327  140.6684   63.5540 S.o2        1 MOL      -0.1624
     11 C9        112.5886  139.7417   62.2485 C.ar        1 MOL       0.0589
     12 C10       112.2549  138.3317   62.2041 C.ar        1 MOL       0.0329
     13 C11       114.9533  136.9787   63.8923 C.ar        1 MOL       0.0604
     14 C12       115.8820  137.5470   63.0022 C.ar        1 MOL      -0.0391
     15 C13       117.2227  137.1214   62.9741 C.ar        1 MOL      -0.0719
     16 C14       117.6490  136.1119   63.8607 C.ar        1 MOL      -0.0738
     17 C15       116.7320  135.5324   64.7537 C.ar        1 MOL      -0.0719
     18 C16       115.3944  135.9543   64.7812 C.ar        1 MOL      -0.0391
     19 O1        113.8461  142.2022   63.0702 O.co2       1 MOL      -0.4795
     20 O2        114.7388  139.9499   64.1904 O.co2       1 MOL      -0.4795
     21 O3        112.1850  140.8624   64.7720 O.co2       1 MOL      -0.4795
     22 H1        112.7306  135.2027   63.4926 H           1 MOL       0.0480
     23 H2        111.0932  134.6176   61.8292 H           1 MOL       0.0576
     24 H3        110.2335  136.2828   60.3497 H           1 MOL       0.0477
     25 H4        110.3130  138.4722   59.4040 H           1 MOL       0.0595
     26 H5        111.0433  140.7489   59.4107 H           1 MOL       0.0613
     27 H6        112.3715  141.5765   61.1680 H           1 MOL       0.0604
     28 H7        113.7045  138.4085   64.3394 H           1 MOL       0.2117
     29 H8        115.5978  138.3044   62.3701 H           1 MOL       0.0532
     30 H9        117.8875  137.5607   62.3348 H           1 MOL       0.0586
     31 H10       118.6287  135.8201   63.8614 H           1 MOL       0.0516
     32 H11       117.0506  134.8090   65.4067 H           1 MOL       0.0586
     33 H12       114.7410  135.5496   65.4508 H           1 MOL       0.0532
@<TRIPOS>BOND
     1     1     2  ar
     2     1     9   1
     3     1    12  ar
     4     2     3  ar
     5     3     4  ar
     6     4     5  ar
     7     5     6  ar
     8     5    12  ar
     9     6     7  ar
    10     7     8  ar
    11     8    11  ar
    12     9    13   1
    13    11    10   1
    14    10    19  ar
    15    10    20  ar
    16    10    21  ar
    17    11    12  ar
    18    13    14  ar
    19    13    18  ar
    20    14    15  ar
    21    15    16  ar
    22    16    17  ar
    23    17    18  ar
    24     2    22   1
    25     3    23   1
    26     4    24   1
    27     6    25   1
    28     7    26   1
    29     8    27   1
    30     9    28   1
    31    14    29   1
    32    15    30   1
    33    16    31   1
    34    17    32   1
    35    18    33   1
@<TRIPOS>SUBSTRUCTURE
     1  MOL      1

