@<TRIPOS>MOLECULE
3pxf_ligand_079
    33    35
SMALL
GAST_HUCK
****
This file was generated by PARSER (from files_GN.cpp)

@<TRIPOS>ATOM
      1 C1        124.5298  137.4660   68.6284 C.ar        1 MOL       0.0730
      2 C2        125.8036  136.9649   68.2565 C.ar        1 MOL      -0.0412
      3 C3        126.7257  136.5376   69.2133 C.ar        1 MOL      -0.0768
      4 C4        126.3954  136.6000   70.5700 C.ar        1 MOL      -0.0703
      5 C5        125.1451  137.1317   70.9796 C.ar        1 MOL      -0.0263
      6 C6        124.8947  137.2206   72.3695 C.ar        1 MOL      -0.0593
      7 C7        123.7075  137.7858   72.8348 C.ar        1 MOL      -0.0629
      8 C8        122.7714  138.2885   71.9301 C.ar        1 MOL      -0.0420
      9 N         123.6259  137.7000   67.6413 N.pl3       1 MOL      -0.2710
     10 S         121.8175  139.1504   69.5887 S.o2        1 MOL      -0.1624
     11 C9        122.9932  138.2491   70.5324 C.ar        1 MOL       0.0589
     12 C10       124.1828  137.6053   70.0182 C.ar        1 MOL       0.0329
     13 C11       123.7495  138.4556   66.5151 C.ar        1 MOL       0.0604
     14 C12       124.3525  139.7374   66.5710 C.ar        1 MOL      -0.0391
     15 C13       124.3321  140.5843   65.4401 C.ar        1 MOL      -0.0719
     16 C14       123.6565  140.1785   64.2785 C.ar        1 MOL      -0.0738
     17 C15       123.0327  138.9073   64.2239 C.ar        1 MOL      -0.0719
     18 C16       123.0935  138.0537   65.3337 C.ar        1 MOL      -0.0391
     19 O1        120.7326  139.9992   70.5679 O.co2       1 MOL      -0.4795
     20 O2        120.9270  138.0470   68.6615 O.co2       1 MOL      -0.4795
     21 O3        122.6080  140.2584   68.5752 O.co2       1 MOL      -0.4795
     22 H1        126.0591  136.8543   67.2797 H           1 MOL       0.0480
     23 H2        127.6252  136.1707   68.9224 H           1 MOL       0.0576
     24 H3        127.0649  136.2558   71.2589 H           1 MOL       0.0477
     25 H4        125.5831  136.8783   73.0468 H           1 MOL       0.0595
     26 H5        123.5445  137.8592   73.8460 H           1 MOL       0.0613
     27 H6        121.9273  138.7025   72.3164 H           1 MOL       0.0604
     28 H7        122.7334  137.3752   67.7989 H           1 MOL       0.2117
     29 H8        124.7942  140.0657   67.4389 H           1 MOL       0.0532
     30 H9        124.7818  141.5018   65.4829 H           1 MOL       0.0586
     31 H10       123.6027  140.8093   63.4769 H           1 MOL       0.0516
     32 H11       122.5122  138.6374   63.3950 H           1 MOL       0.0586
     33 H12       122.6040  137.1528   65.3021 H           1 MOL       0.0532
@<TRIPOS>BOND
     1     1     2  ar
     2     1     9   1
     3     1    12  ar
     4     2     3  ar
     5     3     4  ar
     6     4     5  ar
     7     5     6  ar
     8     5    12  ar
     9     6     7  ar
    10     7     8  ar
    11     8    11  ar
    12     9    13   1
    13    11    10   1
    14    10    19  ar
    15    10    20  ar
    16    10    21  ar
    17    11    12  ar
    18    13    14  ar
    19    13    18  ar
    20    14    15  ar
    21    15    16  ar
    22    16    17  ar
    23    17    18  ar
    24     2    22   1
    25     3    23   1
    26     4    24   1
    27     6    25   1
    28     7    26   1
    29     8    27   1
    30     9    28   1
    31    14    29   1
    32    15    30   1
    33    16    31   1
    34    17    32   1
    35    18    33   1
@<TRIPOS>SUBSTRUCTURE
     1  MOL      1

