@<TRIPOS>MOLECULE
3pxf_ligand_008
    33    35
SMALL
GAST_HUCK
****
This file was generated by PARSER (from files_GN.cpp)

@<TRIPOS>ATOM
      1 C1        115.1812  135.8811   62.4639 C.ar        1 MOL       0.0730
      2 C2        116.3536  136.6014   62.8130 C.ar        1 MOL      -0.0412
      3 C3        117.5026  135.9532   63.2735 C.ar        1 MOL      -0.0768
      4 C4        117.5299  134.5602   63.3406 C.ar        1 MOL      -0.0703
      5 C5        116.4003  133.8066   62.9575 C.ar        1 MOL      -0.0263
      6 C6        116.5244  132.4030   62.9851 C.ar        1 MOL      -0.0593
      7 C7        115.4509  131.5893   62.6250 C.ar        1 MOL      -0.0629
      8 C8        114.2330  132.1747   62.2778 C.ar        1 MOL      -0.0420
      9 N         114.1060  136.5600   61.9765 N.pl3       1 MOL      -0.2710
     10 S         112.3638  134.0350   62.0362 S.o2        1 MOL      -0.1624
     11 C9        114.0501  133.5794   62.2822 C.ar        1 MOL       0.0589
     12 C10       115.1771  134.4420   62.5456 C.ar        1 MOL       0.0329
     13 C11       113.5956  137.7991   62.2669 C.ar        1 MOL       0.0604
     14 C12       112.5006  138.2319   61.4877 C.ar        1 MOL      -0.0391
     15 C13       111.8080  139.4188   61.8003 C.ar        1 MOL      -0.0719
     16 C14       112.1897  140.1885   62.9113 C.ar        1 MOL      -0.0738
     17 C15       113.2620  139.7623   63.7159 C.ar        1 MOL      -0.0719
     18 C16       113.9437  138.5664   63.4092 C.ar        1 MOL      -0.0391
     19 O1        111.3254  132.9567   62.8338 O.co2       1 MOL      -0.4795
     20 O2        112.0003  133.9604   60.3801 O.co2       1 MOL      -0.4795
     21 O3        112.0049  135.5715   62.6478 O.co2       1 MOL      -0.4795
     22 H1        116.4126  137.6116   62.6779 H           1 MOL       0.0480
     23 H2        118.3390  136.5000   63.5237 H           1 MOL       0.0576
     24 H3        118.3919  134.1080   63.6576 H           1 MOL       0.0477
     25 H4        117.4042  131.9514   63.2637 H           1 MOL       0.0595
     26 H5        115.5501  130.5728   62.6398 H           1 MOL       0.0613
     27 H6        113.4655  131.5356   62.0447 H           1 MOL       0.0604
     28 H7        113.5671  136.0588   61.3662 H           1 MOL       0.2117
     29 H8        112.1873  137.6794   60.6887 H           1 MOL       0.0532
     30 H9        111.0177  139.7146   61.2261 H           1 MOL       0.0586
     31 H10       111.6836  141.0391   63.1490 H           1 MOL       0.0516
     32 H11       113.5350  140.3077   64.5409 H           1 MOL       0.0586
     33 H12       114.6655  138.2440   64.0575 H           1 MOL       0.0532
@<TRIPOS>BOND
     1     1     2  ar
     2     1     9   1
     3     1    12  ar
     4     2     3  ar
     5     3     4  ar
     6     4     5  ar
     7     5     6  ar
     8     5    12  ar
     9     6     7  ar
    10     7     8  ar
    11     8    11  ar
    12     9    13   1
    13    11    10   1
    14    10    19  ar
    15    10    20  ar
    16    10    21  ar
    17    11    12  ar
    18    13    14  ar
    19    13    18  ar
    20    14    15  ar
    21    15    16  ar
    22    16    17  ar
    23    17    18  ar
    24     2    22   1
    25     3    23   1
    26     4    24   1
    27     6    25   1
    28     7    26   1
    29     8    27   1
    30     9    28   1
    31    14    29   1
    32    15    30   1
    33    16    31   1
    34    17    32   1
    35    18    33   1
@<TRIPOS>SUBSTRUCTURE
     1  MOL      1

