@<TRIPOS>MOLECULE
3pxf_ligand_002
    33    35
SMALL
GAST_HUCK
****
This file was generated by PARSER (from files_GN.cpp)

@<TRIPOS>ATOM
      1 C1        115.3528  135.8832   61.5529 C.ar        1 MOL       0.0730
      2 C2        116.4033  136.8368   61.5972 C.ar        1 MOL      -0.0412
      3 C3        116.2172  138.0998   62.1668 C.ar        1 MOL      -0.0768
      4 C4        114.9636  138.4617   62.6594 C.ar        1 MOL      -0.0703
      5 C5        113.8888  137.5483   62.6096 C.ar        1 MOL      -0.0263
      6 C6        112.6407  137.9998   63.0895 C.ar        1 MOL      -0.0593
      7 C7        111.5347  137.1514   63.0758 C.ar        1 MOL      -0.0629
      8 C8        111.6835  135.8353   62.6395 C.ar        1 MOL      -0.0420
      9 N         115.5690  134.7207   60.8733 N.pl3       1 MOL      -0.2710
     10 S         112.8452  133.6048   61.8554 S.o2        1 MOL      -0.1624
     11 C9        112.9273  135.3300   62.1878 C.ar        1 MOL       0.0589
     12 C10       114.0615  136.2150   62.0933 C.ar        1 MOL       0.0329
     13 C11       116.7185  133.9962   60.6907 C.ar        1 MOL       0.0604
     14 C12       117.8372  134.1001   61.5553 C.ar        1 MOL      -0.0391
     15 C13       118.9704  133.2857   61.3702 C.ar        1 MOL      -0.0719
     16 C14       118.9867  132.3297   60.3378 C.ar        1 MOL      -0.0738
     17 C15       117.8620  132.1774   59.5086 C.ar        1 MOL      -0.0719
     18 C16       116.7348  133.0035   59.6853 C.ar        1 MOL      -0.0391
     19 O1        114.3567  132.8502   61.9488 O.co2       1 MOL      -0.4795
     20 O2        112.1426  133.3973   60.3292 O.co2       1 MOL      -0.4795
     21 O3        111.8532  132.8238   62.9808 O.co2       1 MOL      -0.4795
     22 H1        117.3066  136.6559   61.1524 H           1 MOL       0.0480
     23 H2        116.9908  138.7675   62.1930 H           1 MOL       0.0576
     24 H3        114.8447  139.4002   63.0557 H           1 MOL       0.0477
     25 H4        112.5164  138.9540   63.4389 H           1 MOL       0.0595
     26 H5        110.6254  137.4786   63.4087 H           1 MOL       0.0613
     27 H6        110.8490  135.2450   62.6751 H           1 MOL       0.0604
     28 H7        114.7863  134.3318   60.4736 H           1 MOL       0.2117
     29 H8        117.8289  134.7547   62.3394 H           1 MOL       0.0532
     30 H9        119.7776  133.3793   61.9934 H           1 MOL       0.0586
     31 H10       119.8055  131.7276   60.2108 H           1 MOL       0.0516
     32 H11       117.8649  131.4600   58.7807 H           1 MOL       0.0586
     33 H12       115.9291  132.8817   59.0686 H           1 MOL       0.0532
@<TRIPOS>BOND
     1     1     2  ar
     2     1     9   1
     3     1    12  ar
     4     2     3  ar
     5     3     4  ar
     6     4     5  ar
     7     5     6  ar
     8     5    12  ar
     9     6     7  ar
    10     7     8  ar
    11     8    11  ar
    12     9    13   1
    13    11    10   1
    14    10    19  ar
    15    10    20  ar
    16    10    21  ar
    17    11    12  ar
    18    13    14  ar
    19    13    18  ar
    20    14    15  ar
    21    15    16  ar
    22    16    17  ar
    23    17    18  ar
    24     2    22   1
    25     3    23   1
    26     4    24   1
    27     6    25   1
    28     7    26   1
    29     8    27   1
    30     9    28   1
    31    14    29   1
    32    15    30   1
    33    16    31   1
    34    17    32   1
    35    18    33   1
@<TRIPOS>SUBSTRUCTURE
     1  MOL      1

