@<TRIPOS>MOLECULE
3pxf_ligand_055
    33    35
SMALL
GAST_HUCK
****
This file was generated by PARSER (from files_GN.cpp)

@<TRIPOS>ATOM
      1 C1        122.4167  137.8062   73.0180 C.ar        1 MOL       0.0730
      2 C2        122.3674  136.8425   74.0523 C.ar        1 MOL      -0.0412
      3 C3        123.5231  136.1631   74.4590 C.ar        1 MOL      -0.0768
      4 C4        124.7477  136.4490   73.8443 C.ar        1 MOL      -0.0703
      5 C5        124.8017  137.3286   72.7413 C.ar        1 MOL      -0.0263
      6 C6        126.0512  137.5825   72.1356 C.ar        1 MOL      -0.0593
      7 C7        126.1298  138.3824   70.9900 C.ar        1 MOL      -0.0629
      8 C8        124.9537  138.8451   70.3864 C.ar        1 MOL      -0.0420
      9 N         121.3171  138.6077   72.9896 N.pl3       1 MOL      -0.2710
     10 S         122.3470  138.7911   69.8375 S.o2        1 MOL      -0.1624
     11 C9        123.6868  138.5730   70.9516 C.ar        1 MOL       0.0589
     12 C10       123.6065  137.9343   72.2314 C.ar        1 MOL       0.0329
     13 C11       121.2275  139.9706   72.9768 C.ar        1 MOL       0.0604
     14 C12       119.9876  140.5376   72.6056 C.ar        1 MOL      -0.0391
     15 C13       119.8047  141.9331   72.6117 C.ar        1 MOL      -0.0719
     16 C14       120.8538  142.7784   73.0143 C.ar        1 MOL      -0.0738
     17 C15       122.0817  142.2271   73.4209 C.ar        1 MOL      -0.0719
     18 C16       122.2644  140.8317   73.4127 C.ar        1 MOL      -0.0391
     19 O1        122.8717  138.4582   68.2647 O.co2       1 MOL      -0.4795
     20 O2        121.8348  140.4012   69.8663 O.co2       1 MOL      -0.4795
     21 O3        121.0498  137.7608   70.1741 O.co2       1 MOL      -0.4795
     22 H1        121.5070  136.6886   74.5877 H           1 MOL       0.0480
     23 H2        123.4832  135.5045   75.2407 H           1 MOL       0.0576
     24 H3        125.5925  135.9863   74.1919 H           1 MOL       0.0477
     25 H4        126.9137  137.1856   72.5188 H           1 MOL       0.0595
     26 H5        127.0367  138.5655   70.5542 H           1 MOL       0.0613
     27 H6        125.0366  139.3373   69.4925 H           1 MOL       0.0604
     28 H7        120.4780  138.1585   73.1774 H           1 MOL       0.2117
     29 H8        119.2115  139.9362   72.3157 H           1 MOL       0.0532
     30 H9        118.9073  142.3325   72.3278 H           1 MOL       0.0586
     31 H10       120.7202  143.7920   73.0220 H           1 MOL       0.0516
     32 H11       122.8389  142.8402   73.7310 H           1 MOL       0.0586
     33 H12       123.1529  140.4509   73.7431 H           1 MOL       0.0532
@<TRIPOS>BOND
     1     1     2  ar
     2     1     9   1
     3     1    12  ar
     4     2     3  ar
     5     3     4  ar
     6     4     5  ar
     7     5     6  ar
     8     5    12  ar
     9     6     7  ar
    10     7     8  ar
    11     8    11  ar
    12     9    13   1
    13    11    10   1
    14    10    19  ar
    15    10    20  ar
    16    10    21  ar
    17    11    12  ar
    18    13    14  ar
    19    13    18  ar
    20    14    15  ar
    21    15    16  ar
    22    16    17  ar
    23    17    18  ar
    24     2    22   1
    25     3    23   1
    26     4    24   1
    27     6    25   1
    28     7    26   1
    29     8    27   1
    30     9    28   1
    31    14    29   1
    32    15    30   1
    33    16    31   1
    34    17    32   1
    35    18    33   1
@<TRIPOS>SUBSTRUCTURE
     1  MOL      1

