@<TRIPOS>MOLECULE
3pxf_ligand_006
    33    35
SMALL
GAST_HUCK
****
This file was generated by PARSER (from files_GN.cpp)

@<TRIPOS>ATOM
      1 C1        113.6451  137.2130   63.1885 C.ar        1 MOL       0.0730
      2 C2        113.5429  138.5850   63.5324 C.ar        1 MOL      -0.0412
      3 C3        112.4836  139.3748   63.0652 C.ar        1 MOL      -0.0768
      4 C4        111.5034  138.8062   62.2379 C.ar        1 MOL      -0.0703
      5 C5        111.5237  137.4198   61.9705 C.ar        1 MOL      -0.0263
      6 C6        110.4477  136.8818   61.2228 C.ar        1 MOL      -0.0593
      7 C7        110.3636  135.5083   60.9974 C.ar        1 MOL      -0.0629
      8 C8        111.3472  134.6596   61.5235 C.ar        1 MOL      -0.0420
      9 N         114.8592  136.6766   63.4844 N.pl3       1 MOL      -0.2710
     10 S         113.2782  133.8888   63.1710 S.o2        1 MOL      -0.1624
     11 C9        112.4122  135.1573   62.3083 C.ar        1 MOL       0.0589
     12 C10       112.5711  136.5750   62.4854 C.ar        1 MOL       0.0329
     13 C11       115.7970  136.2742   62.5698 C.ar        1 MOL       0.0604
     14 C12       116.2837  137.1525   61.5632 C.ar        1 MOL      -0.0391
     15 C13       117.3370  136.7561   60.7199 C.ar        1 MOL      -0.0719
     16 C14       117.9278  135.4792   60.8671 C.ar        1 MOL      -0.0738
     17 C15       117.4630  134.6145   61.8833 C.ar        1 MOL      -0.0719
     18 C16       116.4195  135.0091   62.7421 C.ar        1 MOL      -0.0391
     19 O1        112.1991  132.6808   63.6806 O.co2       1 MOL      -0.4795
     20 O2        114.0644  134.4547   64.5576 O.co2       1 MOL      -0.4795
     21 O3        114.3752  133.1723   62.0956 O.co2       1 MOL      -0.4795
     22 H1        114.2846  139.0648   64.0591 H           1 MOL       0.0480
     23 H2        112.4461  140.3835   63.2767 H           1 MOL       0.0576
     24 H3        110.7666  139.4103   61.8603 H           1 MOL       0.0477
     25 H4        109.6993  137.4831   60.8601 H           1 MOL       0.0595
     26 H5        109.5780  135.1188   60.4642 H           1 MOL       0.0613
     27 H6        111.2271  133.6554   61.3661 H           1 MOL       0.0604
     28 H7        115.2656  137.0047   64.3057 H           1 MOL       0.2117
     29 H8        115.8994  138.0978   61.4839 H           1 MOL       0.0532
     30 H9        117.7210  137.4024   60.0260 H           1 MOL       0.0586
     31 H10       118.6835  135.1793   60.2344 H           1 MOL       0.0516
     32 H11       117.9104  133.7015   62.0059 H           1 MOL       0.0586
     33 H12       116.1189  134.3863   63.5073 H           1 MOL       0.0532
@<TRIPOS>BOND
     1     1     2  ar
     2     1     9   1
     3     1    12  ar
     4     2     3  ar
     5     3     4  ar
     6     4     5  ar
     7     5     6  ar
     8     5    12  ar
     9     6     7  ar
    10     7     8  ar
    11     8    11  ar
    12     9    13   1
    13    11    10   1
    14    10    19  ar
    15    10    20  ar
    16    10    21  ar
    17    11    12  ar
    18    13    14  ar
    19    13    18  ar
    20    14    15  ar
    21    15    16  ar
    22    16    17  ar
    23    17    18  ar
    24     2    22   1
    25     3    23   1
    26     4    24   1
    27     6    25   1
    28     7    26   1
    29     8    27   1
    30     9    28   1
    31    14    29   1
    32    15    30   1
    33    16    31   1
    34    17    32   1
    35    18    33   1
@<TRIPOS>SUBSTRUCTURE
     1  MOL      1

