@<TRIPOS>MOLECULE
3pxf_ligand_058
    33    35
SMALL
GAST_HUCK
****
This file was generated by PARSER (from files_GN.cpp)

@<TRIPOS>ATOM
      1 C1        114.8782  142.3997   68.9264 C.ar        1 MOL       0.0730
      2 C2        115.2039  141.0336   69.1239 C.ar        1 MOL      -0.0412
      3 C3        116.0178  140.6190   70.1829 C.ar        1 MOL      -0.0768
      4 C4        116.4563  141.5545   71.1188 C.ar        1 MOL      -0.0703
      5 C5        116.0942  142.9108   70.9992 C.ar        1 MOL      -0.0263
      6 C6        116.5467  143.7871   72.0077 C.ar        1 MOL      -0.0593
      7 C7        116.2419  145.1457   71.9481 C.ar        1 MOL      -0.0629
      8 C8        115.5272  145.6465   70.8585 C.ar        1 MOL      -0.0420
      9 N         114.0925  142.7133   67.8595 N.pl3       1 MOL      -0.2710
     10 S         114.3902  145.6903   68.4520 S.o2        1 MOL      -0.1624
     11 C9        115.0883  144.8066   69.8054 C.ar        1 MOL       0.0589
     12 C10       115.3155  143.3841   69.8843 C.ar        1 MOL       0.0329
     13 C11       113.9138  142.1081   66.6413 C.ar        1 MOL       0.0604
     14 C12       112.7576  142.4441   65.9053 C.ar        1 MOL      -0.0391
     15 C13       112.5542  141.9519   64.6048 C.ar        1 MOL      -0.0719
     16 C14       113.5063  141.1004   64.0205 C.ar        1 MOL      -0.0738
     17 C15       114.6784  140.7733   64.7277 C.ar        1 MOL      -0.0719
     18 C16       114.8941  141.3017   66.0178 C.ar        1 MOL      -0.0391
     19 O1        114.6497  147.3572   68.5677 O.co2       1 MOL      -0.4795
     20 O2        112.7219  145.4220   68.4084 O.co2       1 MOL      -0.4795
     21 O3        115.0891  145.1781   67.0011 O.co2       1 MOL      -0.4795
     22 H1        114.8196  140.3120   68.5128 H           1 MOL       0.0480
     23 H2        116.2718  139.6324   70.2827 H           1 MOL       0.0576
     24 H3        117.0330  141.2253   71.8974 H           1 MOL       0.0477
     25 H4        117.1016  143.4494   72.8002 H           1 MOL       0.0595
     26 H5        116.5676  145.7786   72.6879 H           1 MOL       0.0613
     27 H6        115.3586  146.6518   70.8419 H           1 MOL       0.0604
     28 H7        113.6109  143.5391   67.9422 H           1 MOL       0.2117
     29 H8        112.0616  143.0687   66.3101 H           1 MOL       0.0532
     30 H9        111.7200  142.2182   64.0793 H           1 MOL       0.0586
     31 H10       113.3582  140.7363   63.0768 H           1 MOL       0.0516
     32 H11       115.3805  140.1707   64.2899 H           1 MOL       0.0586
     33 H12       115.7844  141.1247   66.4858 H           1 MOL       0.0532
@<TRIPOS>BOND
     1     1     2  ar
     2     1     9   1
     3     1    12  ar
     4     2     3  ar
     5     3     4  ar
     6     4     5  ar
     7     5     6  ar
     8     5    12  ar
     9     6     7  ar
    10     7     8  ar
    11     8    11  ar
    12     9    13   1
    13    11    10   1
    14    10    19  ar
    15    10    20  ar
    16    10    21  ar
    17    11    12  ar
    18    13    14  ar
    19    13    18  ar
    20    14    15  ar
    21    15    16  ar
    22    16    17  ar
    23    17    18  ar
    24     2    22   1
    25     3    23   1
    26     4    24   1
    27     6    25   1
    28     7    26   1
    29     8    27   1
    30     9    28   1
    31    14    29   1
    32    15    30   1
    33    16    31   1
    34    17    32   1
    35    18    33   1
@<TRIPOS>SUBSTRUCTURE
     1  MOL      1

