@<TRIPOS>MOLECULE
3pxf_ligand_030
    33    35
SMALL
GAST_HUCK
****
This file was generated by PARSER (from files_GN.cpp)

@<TRIPOS>ATOM
      1 C1        119.3738  132.1220   64.1069 C.ar        1 MOL       0.0730
      2 C2        119.2557  133.1570   65.0622 C.ar        1 MOL      -0.0412
      3 C3        118.8126  134.4256   64.6888 C.ar        1 MOL      -0.0768
      4 C4        118.4509  134.6775   63.3599 C.ar        1 MOL      -0.0703
      5 C5        118.4893  133.6402   62.3964 C.ar        1 MOL      -0.0263
      6 C6        118.0784  133.9441   61.0799 C.ar        1 MOL      -0.0593
      7 C7        118.0524  132.9418   60.1109 C.ar        1 MOL      -0.0629
      8 C8        118.3875  131.6268   60.4528 C.ar        1 MOL      -0.0420
      9 N         120.1164  131.0893   64.5600 N.pl3       1 MOL      -0.2710
     10 S         118.7314  129.5480   62.0936 S.o2        1 MOL      -0.1624
     11 C9        118.7658  131.2792   61.7703 C.ar        1 MOL       0.0589
     12 C10       118.9054  132.3100   62.7624 C.ar        1 MOL       0.0329
     13 C11       121.3473  130.7146   64.1749 C.ar        1 MOL       0.0604
     14 C12       121.9772  129.6841   64.8910 C.ar        1 MOL      -0.0391
     15 C13       123.2421  129.1849   64.5041 C.ar        1 MOL      -0.0719
     16 C14       123.9036  129.7481   63.3949 C.ar        1 MOL      -0.0738
     17 C15       123.3320  130.8340   62.7153 C.ar        1 MOL      -0.0719
     18 C16       122.0711  131.3236   63.1200 C.ar        1 MOL      -0.0391
     19 O1        117.4625  129.1969   63.1624 O.co2       1 MOL      -0.4795
     20 O2        120.1944  128.9797   62.7480 O.co2       1 MOL      -0.4795
     21 O3        118.5116  128.6550   60.6687 O.co2       1 MOL      -0.4795
     22 H1        119.6079  133.0374   66.0198 H           1 MOL       0.0480
     23 H2        118.7997  135.1866   65.3814 H           1 MOL       0.0576
     24 H3        118.1394  135.6205   63.1071 H           1 MOL       0.0477
     25 H4        117.7970  134.8865   60.8197 H           1 MOL       0.0595
     26 H5        117.7427  133.1596   59.1543 H           1 MOL       0.0613
     27 H6        118.2954  130.9191   59.7154 H           1 MOL       0.0604
     28 H7        119.8660  130.7858   65.4827 H           1 MOL       0.2117
     29 H8        121.5073  129.2356   65.6893 H           1 MOL       0.0532
     30 H9        123.6789  128.4186   65.0225 H           1 MOL       0.0586
     31 H10       124.8188  129.3964   63.1184 H           1 MOL       0.0516
     32 H11       123.8242  131.2660   61.9313 H           1 MOL       0.0586
     33 H12       121.6663  132.1135   62.5889 H           1 MOL       0.0532
@<TRIPOS>BOND
     1     1     2  ar
     2     1     9   1
     3     1    12  ar
     4     2     3  ar
     5     3     4  ar
     6     4     5  ar
     7     5     6  ar
     8     5    12  ar
     9     6     7  ar
    10     7     8  ar
    11     8    11  ar
    12     9    13   1
    13    11    10   1
    14    10    19  ar
    15    10    20  ar
    16    10    21  ar
    17    11    12  ar
    18    13    14  ar
    19    13    18  ar
    20    14    15  ar
    21    15    16  ar
    22    16    17  ar
    23    17    18  ar
    24     2    22   1
    25     3    23   1
    26     4    24   1
    27     6    25   1
    28     7    26   1
    29     8    27   1
    30     9    28   1
    31    14    29   1
    32    15    30   1
    33    16    31   1
    34    17    32   1
    35    18    33   1
@<TRIPOS>SUBSTRUCTURE
     1  MOL      1

