@<TRIPOS>MOLECULE
3pxf_ligand_052
    33    35
SMALL
GAST_HUCK
****
This file was generated by PARSER (from files_GN.cpp)

@<TRIPOS>ATOM
      1 C1        115.1259  141.8938   70.1684 C.ar        1 MOL       0.0730
      2 C2        115.1915  140.8539   69.2046 C.ar        1 MOL      -0.0412
      3 C3        116.2194  139.9051   69.2352 C.ar        1 MOL      -0.0768
      4 C4        117.2032  139.9826   70.2250 C.ar        1 MOL      -0.0703
      5 C5        117.1793  141.0211   71.1812 C.ar        1 MOL      -0.0263
      6 C6        118.2076  141.0384   72.1494 C.ar        1 MOL      -0.0593
      7 C7        118.2386  142.0436   73.1197 C.ar        1 MOL      -0.0629
      8 C8        117.2860  143.0673   73.0948 C.ar        1 MOL      -0.0420
      9 N         114.0104  142.6651   70.1896 N.pl3       1 MOL      -0.2710
     10 S         115.3538  144.6091   72.0969 S.o2        1 MOL      -0.1624
     11 C9        116.2700  143.1083   72.1099 C.ar        1 MOL       0.0589
     12 C10       116.1517  142.0251   71.1640 C.ar        1 MOL       0.0329
     13 C11       113.5189  143.5258   69.2488 C.ar        1 MOL       0.0604
     14 C12       114.3141  144.0149   68.1811 C.ar        1 MOL      -0.0391
     15 C13       113.8418  145.0499   67.3527 C.ar        1 MOL      -0.0719
     16 C14       112.5732  145.6118   67.5814 C.ar        1 MOL      -0.0738
     17 C15       111.7808  145.1451   68.6476 C.ar        1 MOL      -0.0719
     18 C16       112.2541  144.1107   69.4797 C.ar        1 MOL      -0.0391
     19 O1        113.7330  144.2859   72.4644 O.co2       1 MOL      -0.4795
     20 O2        115.4686  145.3427   70.5781 O.co2       1 MOL      -0.4795
     21 O3        115.9287  145.7132   73.2435 O.co2       1 MOL      -0.4795
     22 H1        114.4503  140.7329   68.5089 H           1 MOL       0.0480
     23 H2        116.2287  139.1376   68.5586 H           1 MOL       0.0576
     24 H3        117.9407  139.2752   70.2318 H           1 MOL       0.0477
     25 H4        118.9315  140.3134   72.1711 H           1 MOL       0.0595
     26 H5        118.9789  142.0496   73.8274 H           1 MOL       0.0613
     27 H6        117.3705  143.8004   73.8042 H           1 MOL       0.0604
     28 H7        113.5458  142.6840   71.0325 H           1 MOL       0.2117
     29 H8        115.2617  143.6615   68.0292 H           1 MOL       0.0532
     30 H9        114.4264  145.4055   66.5941 H           1 MOL       0.0586
     31 H10       112.2317  146.3735   66.9872 H           1 MOL       0.0516
     32 H11       110.8752  145.5677   68.8272 H           1 MOL       0.0586
     33 H12       111.6754  143.7971   70.2634 H           1 MOL       0.0532
@<TRIPOS>BOND
     1     1     2  ar
     2     1     9   1
     3     1    12  ar
     4     2     3  ar
     5     3     4  ar
     6     4     5  ar
     7     5     6  ar
     8     5    12  ar
     9     6     7  ar
    10     7     8  ar
    11     8    11  ar
    12     9    13   1
    13    11    10   1
    14    10    19  ar
    15    10    20  ar
    16    10    21  ar
    17    11    12  ar
    18    13    14  ar
    19    13    18  ar
    20    14    15  ar
    21    15    16  ar
    22    16    17  ar
    23    17    18  ar
    24     2    22   1
    25     3    23   1
    26     4    24   1
    27     6    25   1
    28     7    26   1
    29     8    27   1
    30     9    28   1
    31    14    29   1
    32    15    30   1
    33    16    31   1
    34    17    32   1
    35    18    33   1
@<TRIPOS>SUBSTRUCTURE
     1  MOL      1

