@<TRIPOS>MOLECULE
3pxf_ligand_071
    33    35
SMALL
GAST_HUCK
****
This file was generated by PARSER (from files_GN.cpp)

@<TRIPOS>ATOM
      1 C1        117.5681  133.7744   64.3512 C.ar        1 MOL       0.0730
      2 C2        118.8227  133.9374   64.9832 C.ar        1 MOL      -0.0412
      3 C3        119.7122  132.8599   65.0962 C.ar        1 MOL      -0.0768
      4 C4        119.3560  131.6089   64.5754 C.ar        1 MOL      -0.0703
      5 C5        118.0948  131.4300   63.9620 C.ar        1 MOL      -0.0263
      6 C6        117.8064  130.1504   63.4410 C.ar        1 MOL      -0.0593
      7 C7        116.5825  129.8990   62.8266 C.ar        1 MOL      -0.0629
      8 C8        115.6324  130.9232   62.7361 C.ar        1 MOL      -0.0420
      9 N         116.9277  134.9237   64.0540 N.pl3       1 MOL      -0.2710
     10 S         114.4574  133.2957   63.0487 S.o2        1 MOL      -0.1624
     11 C9        115.8575  132.2249   63.2560 C.ar        1 MOL       0.0589
     12 C10       117.1419  132.5049   63.8531 C.ar        1 MOL       0.0329
     13 C11       117.0982  135.6223   62.8965 C.ar        1 MOL       0.0604
     14 C12       117.7605  135.1119   61.7578 C.ar        1 MOL      -0.0391
     15 C13       117.8743  135.8793   60.5865 C.ar        1 MOL      -0.0719
     16 C14       117.3395  137.1744   60.5516 C.ar        1 MOL      -0.0738
     17 C15       116.6672  137.6937   61.6725 C.ar        1 MOL      -0.0719
     18 C16       116.5530  136.9194   62.8375 C.ar        1 MOL      -0.0391
     19 O1        114.5813  133.9680   61.5035 O.co2       1 MOL      -0.4795
     20 O2        114.3952  134.5274   64.2078 O.co2       1 MOL      -0.4795
     21 O3        113.0241  132.3903   63.1268 O.co2       1 MOL      -0.4795
     22 H1        119.1386  134.8601   65.3064 H           1 MOL       0.0480
     23 H2        120.6439  133.0015   65.5079 H           1 MOL       0.0576
     24 H3        120.0314  130.8437   64.6453 H           1 MOL       0.0477
     25 H4        118.4887  129.3862   63.4949 H           1 MOL       0.0595
     26 H5        116.3758  128.9805   62.4590 H           1 MOL       0.0613
     27 H6        114.7470  130.6946   62.2707 H           1 MOL       0.0604
     28 H7        116.4390  135.3731   64.7996 H           1 MOL       0.2117
     29 H8        118.1778  134.1684   61.7571 H           1 MOL       0.0532
     30 H9        118.3731  135.5050   59.7751 H           1 MOL       0.0586
     31 H10       117.4366  137.7396   59.7021 H           1 MOL       0.0516
     32 H11       116.2748  138.6367   61.6461 H           1 MOL       0.0586
     33 H12       116.0781  137.3162   63.6544 H           1 MOL       0.0532
@<TRIPOS>BOND
     1     1     2  ar
     2     1     9   1
     3     1    12  ar
     4     2     3  ar
     5     3     4  ar
     6     4     5  ar
     7     5     6  ar
     8     5    12  ar
     9     6     7  ar
    10     7     8  ar
    11     8    11  ar
    12     9    13   1
    13    11    10   1
    14    10    19  ar
    15    10    20  ar
    16    10    21  ar
    17    11    12  ar
    18    13    14  ar
    19    13    18  ar
    20    14    15  ar
    21    15    16  ar
    22    16    17  ar
    23    17    18  ar
    24     2    22   1
    25     3    23   1
    26     4    24   1
    27     6    25   1
    28     7    26   1
    29     8    27   1
    30     9    28   1
    31    14    29   1
    32    15    30   1
    33    16    31   1
    34    17    32   1
    35    18    33   1
@<TRIPOS>SUBSTRUCTURE
     1  MOL      1

