@<TRIPOS>MOLECULE
3pxf_ligand_039
    33    35
SMALL
GAST_HUCK
****
This file was generated by PARSER (from files_GN.cpp)

@<TRIPOS>ATOM
      1 C1        120.0409  132.9428   63.1939 C.ar        1 MOL       0.0730
      2 C2        121.4296  133.1012   63.4031 C.ar        1 MOL      -0.0412
      3 C3        122.2851  131.9946   63.4582 C.ar        1 MOL      -0.0768
      4 C4        121.7704  130.7086   63.2842 C.ar        1 MOL      -0.0703
      5 C5        120.3890  130.5162   63.0614 C.ar        1 MOL      -0.0263
      6 C6        119.9343  129.1934   62.8964 C.ar        1 MOL      -0.0593
      7 C7        118.5859  128.9321   62.6477 C.ar        1 MOL      -0.0629
      8 C8        117.6721  129.9904   62.6155 C.ar        1 MOL      -0.0420
      9 N         119.2894  134.0694   63.0582 N.pl3       1 MOL      -0.2710
     10 S         116.7361  132.4544   63.0257 S.o2        1 MOL      -0.1624
     11 C9        118.0768  131.3286   62.8459 C.ar        1 MOL       0.0589
     12 C10       119.4779  131.6294   63.0143 C.ar        1 MOL       0.0329
     13 C11       119.0149  135.0909   63.9326 C.ar        1 MOL       0.0604
     14 C12       117.9434  135.9449   63.5869 C.ar        1 MOL      -0.0391
     15 C13       117.4358  136.8857   64.5097 C.ar        1 MOL      -0.0719
     16 C14       117.9848  136.9762   65.8006 C.ar        1 MOL      -0.0738
     17 C15       119.0571  136.1401   66.1643 C.ar        1 MOL      -0.0719
     18 C16       119.5539  135.1944   65.2434 C.ar        1 MOL      -0.0391
     19 O1        115.2450  131.6649   63.1768 O.co2       1 MOL      -0.4795
     20 O2        116.6485  133.4621   61.6672 O.co2       1 MOL      -0.4795
     21 O3        116.9697  133.3979   64.4145 O.co2       1 MOL      -0.4795
     22 H1        121.8505  134.0334   63.4438 H           1 MOL       0.0480
     23 H2        123.2915  132.1337   63.5947 H           1 MOL       0.0576
     24 H3        122.4156  129.9147   63.3405 H           1 MOL       0.0477
     25 H4        120.5820  128.4012   62.9471 H           1 MOL       0.0595
     26 H5        118.2603  127.9760   62.5182 H           1 MOL       0.0613
     27 H6        116.6959  129.7563   62.4520 H           1 MOL       0.0604
     28 H7        118.7416  134.0875   62.2649 H           1 MOL       0.2117
     29 H8        117.5083  135.8854   62.6637 H           1 MOL       0.0532
     30 H9        116.6471  137.4834   64.2476 H           1 MOL       0.0586
     31 H10       117.6121  137.6502   66.4719 H           1 MOL       0.0516
     32 H11       119.4497  136.1925   67.1029 H           1 MOL       0.0586
     33 H12       120.2777  134.5472   65.5639 H           1 MOL       0.0532
@<TRIPOS>BOND
     1     1     2  ar
     2     1     9   1
     3     1    12  ar
     4     2     3  ar
     5     3     4  ar
     6     4     5  ar
     7     5     6  ar
     8     5    12  ar
     9     6     7  ar
    10     7     8  ar
    11     8    11  ar
    12     9    13   1
    13    11    10   1
    14    10    19  ar
    15    10    20  ar
    16    10    21  ar
    17    11    12  ar
    18    13    14  ar
    19    13    18  ar
    20    14    15  ar
    21    15    16  ar
    22    16    17  ar
    23    17    18  ar
    24     2    22   1
    25     3    23   1
    26     4    24   1
    27     6    25   1
    28     7    26   1
    29     8    27   1
    30     9    28   1
    31    14    29   1
    32    15    30   1
    33    16    31   1
    34    17    32   1
    35    18    33   1
@<TRIPOS>SUBSTRUCTURE
     1  MOL      1

