@<TRIPOS>MOLECULE
3pxf_ligand_053
    33    35
SMALL
GAST_HUCK
****
This file was generated by PARSER (from files_GN.cpp)

@<TRIPOS>ATOM
      1 C1        119.9631  131.5276   62.9511 C.ar        1 MOL       0.0730
      2 C2        118.9829  130.7302   62.3317 C.ar        1 MOL      -0.0412
      3 C3        117.6150  130.9886   62.5160 C.ar        1 MOL      -0.0768
      4 C4        117.2258  132.0791   63.2871 C.ar        1 MOL      -0.0703
      5 C5        118.1923  132.9211   63.8806 C.ar        1 MOL      -0.0263
      6 C6        117.7274  134.0313   64.6249 C.ar        1 MOL      -0.0593
      7 C7        118.6296  134.8901   65.2499 C.ar        1 MOL      -0.0629
      8 C8        120.0008  134.6265   65.1866 C.ar        1 MOL      -0.0420
      9 N         121.2678  131.2680   62.6448 N.pl3       1 MOL      -0.2710
     10 S         122.2560  133.2891   64.6782 S.o2        1 MOL      -0.1624
     11 C9        120.5160  133.5039   64.4842 C.ar        1 MOL       0.0589
     12 C10       119.6006  132.6608   63.7567 C.ar        1 MOL       0.0329
     13 C11       122.0719  130.2307   62.9901 C.ar        1 MOL       0.0604
     14 C12       123.4630  130.4845   63.0300 C.ar        1 MOL      -0.0391
     15 C13       124.3502  129.5365   63.5843 C.ar        1 MOL      -0.0719
     16 C14       123.8693  128.3163   64.0622 C.ar        1 MOL      -0.0738
     17 C15       122.4860  128.0110   63.9803 C.ar        1 MOL      -0.0719
     18 C16       121.6038  128.9715   63.4624 C.ar        1 MOL      -0.0391
     19 O1        122.6283  131.7429   65.2791 O.co2       1 MOL      -0.4795
     20 O2        122.9042  134.3967   65.7728 O.co2       1 MOL      -0.4795
     21 O3        123.0324  133.4942   63.1913 O.co2       1 MOL      -0.4795
     22 H1        119.2381  129.9712   61.6886 H           1 MOL       0.0480
     23 H2        116.9136  130.3892   62.0641 H           1 MOL       0.0576
     24 H3        116.2222  132.2652   63.3881 H           1 MOL       0.0477
     25 H4        116.7309  134.2235   64.7032 H           1 MOL       0.0595
     26 H5        118.2914  135.6989   65.7689 H           1 MOL       0.0613
     27 H6        120.6268  135.2752   65.6800 H           1 MOL       0.0604
     28 H7        121.7416  132.0049   62.2332 H           1 MOL       0.2117
     29 H8        123.8232  131.3944   62.7441 H           1 MOL       0.0532
     30 H9        125.3557  129.7515   63.6380 H           1 MOL       0.0586
     31 H10       124.5053  127.6368   64.4690 H           1 MOL       0.0516
     32 H11       122.1371  127.1259   64.3383 H           1 MOL       0.0586
     33 H12       120.6033  128.7770   63.5175 H           1 MOL       0.0532
@<TRIPOS>BOND
     1     1     2  ar
     2     1     9   1
     3     1    12  ar
     4     2     3  ar
     5     3     4  ar
     6     4     5  ar
     7     5     6  ar
     8     5    12  ar
     9     6     7  ar
    10     7     8  ar
    11     8    11  ar
    12     9    13   1
    13    11    10   1
    14    10    19  ar
    15    10    20  ar
    16    10    21  ar
    17    11    12  ar
    18    13    14  ar
    19    13    18  ar
    20    14    15  ar
    21    15    16  ar
    22    16    17  ar
    23    17    18  ar
    24     2    22   1
    25     3    23   1
    26     4    24   1
    27     6    25   1
    28     7    26   1
    29     8    27   1
    30     9    28   1
    31    14    29   1
    32    15    30   1
    33    16    31   1
    34    17    32   1
    35    18    33   1
@<TRIPOS>SUBSTRUCTURE
     1  MOL      1

