@<TRIPOS>MOLECULE
3pxf_ligand_036
    33    35
SMALL
GAST_HUCK
****
This file was generated by PARSER (from files_GN.cpp)

@<TRIPOS>ATOM
      1 C1        116.6975  132.9626   63.5973 C.ar        1 MOL       0.0730
      2 C2        116.3123  134.2650   64.0139 C.ar        1 MOL      -0.0412
      3 C3        117.1508  135.0594   64.7973 C.ar        1 MOL      -0.0768
      4 C4        118.4238  134.5893   65.1326 C.ar        1 MOL      -0.0703
      5 C5        118.8507  133.3135   64.6931 C.ar        1 MOL      -0.0263
      6 C6        120.1899  132.9479   64.9738 C.ar        1 MOL      -0.0593
      7 C7        120.6962  131.7290   64.5221 C.ar        1 MOL      -0.0629
      8 C8        119.8655  130.8387   63.8318 C.ar        1 MOL      -0.0420
      9 N         115.8025  132.2929   62.8324 N.pl3       1 MOL      -0.2710
     10 S         117.6270  129.8475   62.7493 S.o2        1 MOL      -0.1624
     11 C9        118.5087  131.1500   63.5492 C.ar        1 MOL       0.0589
     12 C10       117.9864  132.4335   63.9504 C.ar        1 MOL       0.0329
     13 C11       115.4059  132.6671   61.5697 C.ar        1 MOL       0.0604
     14 C12       114.2480  132.0829   61.0114 C.ar        1 MOL      -0.0391
     15 C13       113.8873  132.3348   59.6750 C.ar        1 MOL      -0.0719
     16 C14       114.7079  133.1476   58.8631 C.ar        1 MOL      -0.0738
     17 C15       115.8778  133.7167   59.3933 C.ar        1 MOL      -0.0719
     18 C16       116.2279  133.4779   60.7342 C.ar        1 MOL      -0.0391
     19 O1        116.0934  129.7449   63.4536 O.co2       1 MOL      -0.4795
     20 O2        118.3774  128.3368   62.8932 O.co2       1 MOL      -0.4795
     21 O3        117.4678  130.1656   61.0963 O.co2       1 MOL      -0.4795
     22 H1        115.3831  134.6302   63.7751 H           1 MOL       0.0480
     23 H2        116.8467  135.9901   65.0913 H           1 MOL       0.0576
     24 H3        119.0402  135.2060   65.6649 H           1 MOL       0.0477
     25 H4        120.8157  133.5849   65.4773 H           1 MOL       0.0595
     26 H5        121.6716  131.4822   64.7015 H           1 MOL       0.0613
     27 H6        120.2791  129.9502   63.5454 H           1 MOL       0.0604
     28 H7        115.5985  131.3763   63.0953 H           1 MOL       0.2117
     29 H8        113.6564  131.4777   61.5875 H           1 MOL       0.0532
     30 H9        113.0308  131.9326   59.2953 H           1 MOL       0.0586
     31 H10       114.4630  133.3099   57.8833 H           1 MOL       0.0516
     32 H11       116.4732  134.3103   58.8059 H           1 MOL       0.0586
     33 H12       117.1052  133.8847   61.0879 H           1 MOL       0.0532
@<TRIPOS>BOND
     1     1     2  ar
     2     1     9   1
     3     1    12  ar
     4     2     3  ar
     5     3     4  ar
     6     4     5  ar
     7     5     6  ar
     8     5    12  ar
     9     6     7  ar
    10     7     8  ar
    11     8    11  ar
    12     9    13   1
    13    11    10   1
    14    10    19  ar
    15    10    20  ar
    16    10    21  ar
    17    11    12  ar
    18    13    14  ar
    19    13    18  ar
    20    14    15  ar
    21    15    16  ar
    22    16    17  ar
    23    17    18  ar
    24     2    22   1
    25     3    23   1
    26     4    24   1
    27     6    25   1
    28     7    26   1
    29     8    27   1
    30     9    28   1
    31    14    29   1
    32    15    30   1
    33    16    31   1
    34    17    32   1
    35    18    33   1
@<TRIPOS>SUBSTRUCTURE
     1  MOL      1

