@<TRIPOS>MOLECULE
3pxf_ligand_075
    33    35
SMALL
GAST_HUCK
****
This file was generated by PARSER (from files_GN.cpp)

@<TRIPOS>ATOM
      1 C1        124.0027  134.3475   67.0851 C.ar        1 MOL       0.0730
      2 C2        124.2772  133.0297   67.5230 C.ar        1 MOL      -0.0412
      3 C3        125.4541  132.7248   68.2100 C.ar        1 MOL      -0.0768
      4 C4        126.3671  133.7396   68.5059 C.ar        1 MOL      -0.0703
      5 C5        126.1208  135.0644   68.0860 C.ar        1 MOL      -0.0263
      6 C6        127.0688  136.0497   68.4418 C.ar        1 MOL      -0.0593
      7 C7        126.8935  137.3749   68.0324 C.ar        1 MOL      -0.0629
      8 C8        125.8044  137.7103   67.2123 C.ar        1 MOL      -0.0420
      9 N         122.7870  134.6077   66.5371 N.pl3       1 MOL      -0.2710
     10 S         123.7311  137.3092   65.5773 S.o2        1 MOL      -0.1624
     11 C9        124.8564  136.7415   66.8031 C.ar        1 MOL       0.0589
     12 C10       124.9512  135.3994   67.3179 C.ar        1 MOL       0.0329
     13 C11       122.1158  134.0005   65.5147 C.ar        1 MOL       0.0604
     14 C12       122.7282  133.1582   64.5528 C.ar        1 MOL      -0.0391
     15 C13       122.0294  132.7553   63.3932 C.ar        1 MOL      -0.0719
     16 C14       120.7115  133.2027   63.1771 C.ar        1 MOL      -0.0738
     17 C15       120.0817  134.0178   64.1330 C.ar        1 MOL      -0.0719
     18 C16       120.7818  134.4194   65.2916 C.ar        1 MOL      -0.0391
     19 O1        124.3306  138.6586   64.7418 O.co2       1 MOL      -0.4795
     20 O2        122.2880  137.7733   66.3363 O.co2       1 MOL      -0.4795
     21 O3        123.4170  136.0844   64.4473 O.co2       1 MOL      -0.4795
     22 H1        123.5869  132.2822   67.4080 H           1 MOL       0.0480
     23 H2        125.6181  131.7714   68.5500 H           1 MOL       0.0576
     24 H3        127.2106  133.4982   69.0393 H           1 MOL       0.0477
     25 H4        127.8894  135.8170   69.0048 H           1 MOL       0.0595
     26 H5        127.5827  138.0868   68.2910 H           1 MOL       0.0613
     27 H6        125.7491  138.6784   66.8920 H           1 MOL       0.0604
     28 H7        122.3734  135.4289   66.8341 H           1 MOL       0.2117
     29 H8        123.7071  132.8900   64.6397 H           1 MOL       0.0532
     30 H9        122.4847  132.1709   62.6923 H           1 MOL       0.0586
     31 H10       120.2203  132.9557   62.3175 H           1 MOL       0.0516
     32 H11       119.1321  134.3559   63.9755 H           1 MOL       0.0586
     33 H12       120.3234  135.0455   65.9556 H           1 MOL       0.0532
@<TRIPOS>BOND
     1     1     2  ar
     2     1     9   1
     3     1    12  ar
     4     2     3  ar
     5     3     4  ar
     6     4     5  ar
     7     5     6  ar
     8     5    12  ar
     9     6     7  ar
    10     7     8  ar
    11     8    11  ar
    12     9    13   1
    13    11    10   1
    14    10    19  ar
    15    10    20  ar
    16    10    21  ar
    17    11    12  ar
    18    13    14  ar
    19    13    18  ar
    20    14    15  ar
    21    15    16  ar
    22    16    17  ar
    23    17    18  ar
    24     2    22   1
    25     3    23   1
    26     4    24   1
    27     6    25   1
    28     7    26   1
    29     8    27   1
    30     9    28   1
    31    14    29   1
    32    15    30   1
    33    16    31   1
    34    17    32   1
    35    18    33   1
@<TRIPOS>SUBSTRUCTURE
     1  MOL      1

