@<TRIPOS>MOLECULE
3pxf_ligand_047
    33    35
SMALL
GAST_HUCK
****
This file was generated by PARSER (from files_GN.cpp)

@<TRIPOS>ATOM
      1 C1        126.1123  135.8611   68.8562 C.ar        1 MOL       0.0730
      2 C2        127.4383  135.7117   69.3281 C.ar        1 MOL      -0.0412
      3 C3        127.9618  136.5638   70.3010 C.ar        1 MOL      -0.0768
      4 C4        127.1605  137.5732   70.8451 C.ar        1 MOL      -0.0703
      5 C5        125.8333  137.7588   70.3816 C.ar        1 MOL      -0.0263
      6 C6        125.0649  138.7976   70.9588 C.ar        1 MOL      -0.0593
      7 C7        123.7586  139.0377   70.5175 C.ar        1 MOL      -0.0629
      8 C8        123.2464  138.3147   69.4330 C.ar        1 MOL      -0.0420
      9 N         125.5958  134.8968   68.0535 N.pl3       1 MOL      -0.2710
     10 S         123.3012  136.7048   67.2939 S.o2        1 MOL      -0.1624
     11 C9        124.0104  137.3007   68.7944 C.ar        1 MOL       0.0589
     12 C10       125.2999  136.9467   69.3286 C.ar        1 MOL       0.0329
     13 C11       126.0254  134.4487   66.8345 C.ar        1 MOL       0.0604
     14 C12       125.5607  133.1960   66.3890 C.ar        1 MOL      -0.0391
     15 C13       125.8699  132.7282   65.0935 C.ar        1 MOL      -0.0719
     16 C14       126.6579  133.5212   64.2341 C.ar        1 MOL      -0.0738
     17 C15       127.1103  134.7809   64.6532 C.ar        1 MOL      -0.0719
     18 C16       126.7825  135.2517   65.9410 C.ar        1 MOL      -0.0391
     19 O1        124.4147  136.7929   66.0204 O.co2       1 MOL      -0.4795
     20 O2        121.9361  137.5913   66.8328 O.co2       1 MOL      -0.4795
     21 O3        122.8055  135.0981   67.4948 O.co2       1 MOL      -0.4795
     22 H1        128.0143  134.9248   69.0261 H           1 MOL       0.0480
     23 H2        128.9157  136.4166   70.6413 H           1 MOL       0.0576
     24 H3        127.5572  138.1669   71.5759 H           1 MOL       0.0477
     25 H4        125.4357  139.3638   71.7230 H           1 MOL       0.0595
     26 H5        123.2000  139.7741   70.9535 H           1 MOL       0.0613
     27 H6        122.3084  138.5525   69.1062 H           1 MOL       0.0604
     28 H7        124.7835  134.4955   68.3828 H           1 MOL       0.2117
     29 H8        124.9667  132.6239   66.9919 H           1 MOL       0.0532
     30 H9        125.5190  131.8279   64.7779 H           1 MOL       0.0586
     31 H10       126.8848  133.1863   63.2949 H           1 MOL       0.0516
     32 H11       127.6713  135.3589   64.0198 H           1 MOL       0.0586
     33 H12       127.0725  136.1924   66.2036 H           1 MOL       0.0532
@<TRIPOS>BOND
     1     1     2  ar
     2     1     9   1
     3     1    12  ar
     4     2     3  ar
     5     3     4  ar
     6     4     5  ar
     7     5     6  ar
     8     5    12  ar
     9     6     7  ar
    10     7     8  ar
    11     8    11  ar
    12     9    13   1
    13    11    10   1
    14    10    19  ar
    15    10    20  ar
    16    10    21  ar
    17    11    12  ar
    18    13    14  ar
    19    13    18  ar
    20    14    15  ar
    21    15    16  ar
    22    16    17  ar
    23    17    18  ar
    24     2    22   1
    25     3    23   1
    26     4    24   1
    27     6    25   1
    28     7    26   1
    29     8    27   1
    30     9    28   1
    31    14    29   1
    32    15    30   1
    33    16    31   1
    34    17    32   1
    35    18    33   1
@<TRIPOS>SUBSTRUCTURE
     1  MOL      1

