@<TRIPOS>MOLECULE
3pxf_ligand_066
    33    35
SMALL
GAST_HUCK
****
This file was generated by PARSER (from files_GN.cpp)

@<TRIPOS>ATOM
      1 C1        113.2710  143.8134   67.9513 C.ar        1 MOL       0.0730
      2 C2        111.9320  144.2809   67.9630 C.ar        1 MOL      -0.0412
      3 C3        110.9803  143.8018   67.0585 C.ar        1 MOL      -0.0768
      4 C4        111.3507  142.8450   66.1117 C.ar        1 MOL      -0.0703
      5 C5        112.6829  142.3804   66.0489 C.ar        1 MOL      -0.0263
      6 C6        112.9909  141.4444   65.0381 C.ar        1 MOL      -0.0593
      7 C7        114.2918  140.9589   64.9021 C.ar        1 MOL      -0.0629
      8 C8        115.2985  141.4212   65.7548 C.ar        1 MOL      -0.0420
      9 N         114.0888  144.2054   68.9651 N.pl3       1 MOL      -0.2710
     10 S         116.4931  142.9751   67.5564 S.o2        1 MOL      -0.1624
     11 C9        115.0380  142.3877   66.7556 C.ar        1 MOL       0.0589
     12 C10       113.6903  142.8589   66.9584 C.ar        1 MOL       0.0329
     13 C11       114.5844  145.4428   69.2883 C.ar        1 MOL       0.0604
     14 C12       114.7258  146.4845   68.3390 C.ar        1 MOL      -0.0391
     15 C13       115.3816  147.6847   68.6736 C.ar        1 MOL      -0.0719
     16 C14       115.9190  147.8540   69.9603 C.ar        1 MOL      -0.0738
     17 C15       115.7956  146.8263   70.9132 C.ar        1 MOL      -0.0719
     18 C16       115.1374  145.6259   70.5759 C.ar        1 MOL      -0.0391
     19 O1        116.3631  142.7068   69.2210 O.co2       1 MOL      -0.4795
     20 O2        116.6938  144.6258   67.2519 O.co2       1 MOL      -0.4795
     21 O3        117.8945  142.1893   67.0240 O.co2       1 MOL      -0.4795
     22 H1        111.6063  144.9279   68.6837 H           1 MOL       0.0480
     23 H2        110.0112  144.1295   67.1072 H           1 MOL       0.0576
     24 H3        110.6351  142.5001   65.4639 H           1 MOL       0.0477
     25 H4        112.2746  141.1120   64.3840 H           1 MOL       0.0595
     26 H5        114.5123  140.2846   64.1647 H           1 MOL       0.0613
     27 H6        116.2382  141.0513   65.6020 H           1 MOL       0.0604
     28 H7        114.4207  143.4911   69.5195 H           1 MOL       0.2117
     29 H8        114.3908  146.3607   67.3831 H           1 MOL       0.0532
     30 H9        115.4913  148.4210   67.9738 H           1 MOL       0.0586
     31 H10       116.4151  148.7172   70.1966 H           1 MOL       0.0516
     32 H11       116.2007  146.9458   71.8460 H           1 MOL       0.0586
     33 H12       115.0725  144.8810   71.2765 H           1 MOL       0.0532
@<TRIPOS>BOND
     1     1     2  ar
     2     1     9   1
     3     1    12  ar
     4     2     3  ar
     5     3     4  ar
     6     4     5  ar
     7     5     6  ar
     8     5    12  ar
     9     6     7  ar
    10     7     8  ar
    11     8    11  ar
    12     9    13   1
    13    11    10   1
    14    10    19  ar
    15    10    20  ar
    16    10    21  ar
    17    11    12  ar
    18    13    14  ar
    19    13    18  ar
    20    14    15  ar
    21    15    16  ar
    22    16    17  ar
    23    17    18  ar
    24     2    22   1
    25     3    23   1
    26     4    24   1
    27     6    25   1
    28     7    26   1
    29     8    27   1
    30     9    28   1
    31    14    29   1
    32    15    30   1
    33    16    31   1
    34    17    32   1
    35    18    33   1
@<TRIPOS>SUBSTRUCTURE
     1  MOL      1

