@<TRIPOS>MOLECULE
3pxf_ligand_009
    33    35
SMALL
GAST_HUCK
****
This file was generated by PARSER (from files_GN.cpp)

@<TRIPOS>ATOM
      1 C1        115.3886  135.6216   61.8603 C.ar        1 MOL       0.0730
      2 C2        116.7634  135.8422   61.6346 C.ar        1 MOL      -0.0412
      3 C3        117.4540  135.1295   60.6490 C.ar        1 MOL      -0.0768
      4 C4        116.7804  134.1761   59.8750 C.ar        1 MOL      -0.0703
      5 C5        115.4233  133.8913   60.1203 C.ar        1 MOL      -0.0263
      6 C6        114.8080  132.9000   59.3247 C.ar        1 MOL      -0.0593
      7 C7        113.4850  132.5181   59.5905 C.ar        1 MOL      -0.0629
      8 C8        112.8013  133.0588   60.6830 C.ar        1 MOL      -0.0420
      9 N         114.8322  136.4994   62.7397 N.pl3       1 MOL      -0.2710
     10 S         112.5923  134.2679   63.0530 S.o2        1 MOL      -0.1624
     11 C9        113.4141  134.0242   61.5183 C.ar        1 MOL       0.0589
     12 C10       114.7104  134.5526   61.1789 C.ar        1 MOL       0.0329
     13 C11       114.0482  137.5744   62.3660 C.ar        1 MOL       0.0604
     14 C12       112.9017  137.4594   61.5407 C.ar        1 MOL      -0.0391
     15 C13       112.1210  138.5891   61.2296 C.ar        1 MOL      -0.0719
     16 C14       112.4913  139.8569   61.7160 C.ar        1 MOL      -0.0738
     17 C15       113.6365  139.9905   62.5262 C.ar        1 MOL      -0.0719
     18 C16       114.4033  138.8604   62.8510 C.ar        1 MOL      -0.0391
     19 O1        113.6520  134.8088   64.2668 O.co2       1 MOL      -0.4795
     20 O2        111.9196  132.7967   63.5633 O.co2       1 MOL      -0.4795
     21 O3        111.3248  135.3742   62.8455 O.co2       1 MOL      -0.4795
     22 H1        117.2705  136.5596   62.1556 H           1 MOL       0.0480
     23 H2        118.4418  135.3343   60.4701 H           1 MOL       0.0576
     24 H3        117.3106  133.6654   59.1535 H           1 MOL       0.0477
     25 H4        115.3117  132.4408   58.5622 H           1 MOL       0.0595
     26 H5        113.0460  131.7785   59.0272 H           1 MOL       0.0613
     27 H6        111.8811  132.6926   60.8912 H           1 MOL       0.0604
     28 H7        115.4551  136.7517   63.4594 H           1 MOL       0.2117
     29 H8        112.6211  136.5496   61.1606 H           1 MOL       0.0532
     30 H9        111.2978  138.4937   60.6302 H           1 MOL       0.0586
     31 H10       111.9329  140.6806   61.4785 H           1 MOL       0.0516
     32 H11       113.9171  140.9137   62.8623 H           1 MOL       0.0586
     33 H12       115.2421  138.9805   63.4226 H           1 MOL       0.0532
@<TRIPOS>BOND
     1     1     2  ar
     2     1     9   1
     3     1    12  ar
     4     2     3  ar
     5     3     4  ar
     6     4     5  ar
     7     5     6  ar
     8     5    12  ar
     9     6     7  ar
    10     7     8  ar
    11     8    11  ar
    12     9    13   1
    13    11    10   1
    14    10    19  ar
    15    10    20  ar
    16    10    21  ar
    17    11    12  ar
    18    13    14  ar
    19    13    18  ar
    20    14    15  ar
    21    15    16  ar
    22    16    17  ar
    23    17    18  ar
    24     2    22   1
    25     3    23   1
    26     4    24   1
    27     6    25   1
    28     7    26   1
    29     8    27   1
    30     9    28   1
    31    14    29   1
    32    15    30   1
    33    16    31   1
    34    17    32   1
    35    18    33   1
@<TRIPOS>SUBSTRUCTURE
     1  MOL      1

