@<TRIPOS>MOLECULE
3pxf_ligand_040
    33    35
SMALL
GAST_HUCK
****
This file was generated by PARSER (from files_GN.cpp)

@<TRIPOS>ATOM
      1 C1        130.0097  129.3445   69.0239 C.ar        1 MOL       0.0730
      2 C2        130.9284  130.0230   69.8640 C.ar        1 MOL      -0.0412
      3 C3        132.2474  130.2605   69.4624 C.ar        1 MOL      -0.0768
      4 C4        132.6926  129.7788   68.2284 C.ar        1 MOL      -0.0703
      5 C5        131.7987  129.1114   67.3596 C.ar        1 MOL      -0.0263
      6 C6        132.3066  128.6441   66.1279 C.ar        1 MOL      -0.0593
      7 C7        131.4550  128.0425   65.1987 C.ar        1 MOL      -0.0629
      8 C8        130.0870  127.9484   65.4667 C.ar        1 MOL      -0.0420
      9 N         128.8090  128.9627   69.5388 N.pl3       1 MOL      -0.2710
     10 S         127.7884  128.3673   66.7447 S.o2        1 MOL      -0.1624
     11 C9        129.5424  128.4044   66.6926 C.ar        1 MOL       0.0589
     12 C10       130.4153  128.9375   67.7071 C.ar        1 MOL       0.0329
     13 C11       127.8320  129.6672   70.1820 C.ar        1 MOL       0.0604
     14 C12       126.9558  128.9641   71.0367 C.ar        1 MOL      -0.0391
     15 C13       125.8482  129.6064   71.6274 C.ar        1 MOL      -0.0719
     16 C14       125.5928  130.9645   71.3372 C.ar        1 MOL      -0.0738
     17 C15       126.4420  131.6676   70.4699 C.ar        1 MOL      -0.0719
     18 C16       127.5506  131.0219   69.8835 C.ar        1 MOL      -0.0391
     19 O1        127.2944  127.5457   68.1394 O.co2       1 MOL      -0.4795
     20 O2        127.1157  127.5539   65.4224 O.co2       1 MOL      -0.4795
     21 O3        127.1821  129.9460   66.7503 O.co2       1 MOL      -0.4795
     22 H1        130.6663  130.2980   70.8138 H           1 MOL       0.0480
     23 H2        132.8986  130.7378   70.0904 H           1 MOL       0.0576
     24 H3        133.6744  129.9306   67.9695 H           1 MOL       0.0477
     25 H4        133.2998  128.7374   65.8977 H           1 MOL       0.0595
     26 H5        131.8258  127.6873   64.3151 H           1 MOL       0.0613
     27 H6        129.4997  127.5458   64.7364 H           1 MOL       0.0604
     28 H7        128.6092  128.0274   69.4440 H           1 MOL       0.2117
     29 H8        127.1138  127.9766   71.2381 H           1 MOL       0.0532
     30 H9        125.2207  129.0926   72.2458 H           1 MOL       0.0586
     31 H10       124.7877  131.4306   71.7571 H           1 MOL       0.0516
     32 H11       126.2585  132.6502   70.2549 H           1 MOL       0.0586
     33 H12       128.1186  131.5300   69.2065 H           1 MOL       0.0532
@<TRIPOS>BOND
     1     1     2  ar
     2     1     9   1
     3     1    12  ar
     4     2     3  ar
     5     3     4  ar
     6     4     5  ar
     7     5     6  ar
     8     5    12  ar
     9     6     7  ar
    10     7     8  ar
    11     8    11  ar
    12     9    13   1
    13    11    10   1
    14    10    19  ar
    15    10    20  ar
    16    10    21  ar
    17    11    12  ar
    18    13    14  ar
    19    13    18  ar
    20    14    15  ar
    21    15    16  ar
    22    16    17  ar
    23    17    18  ar
    24     2    22   1
    25     3    23   1
    26     4    24   1
    27     6    25   1
    28     7    26   1
    29     8    27   1
    30     9    28   1
    31    14    29   1
    32    15    30   1
    33    16    31   1
    34    17    32   1
    35    18    33   1
@<TRIPOS>SUBSTRUCTURE
     1  MOL      1

