@<TRIPOS>MOLECULE
3pxf_ligand_010
    33    35
SMALL
GAST_HUCK
****
This file was generated by PARSER (from files_GN.cpp)

@<TRIPOS>ATOM
      1 C1        118.1036  135.5732   63.3572 C.ar        1 MOL       0.0730
      2 C2        118.6111  136.2591   64.4902 C.ar        1 MOL      -0.0412
      3 C3        119.7789  135.8320   65.1336 C.ar        1 MOL      -0.0768
      4 C4        120.4619  134.7006   64.6650 C.ar        1 MOL      -0.0703
      5 C5        119.9550  133.9741   63.5630 C.ar        1 MOL      -0.0263
      6 C6        120.6841  132.8367   63.1443 C.ar        1 MOL      -0.0593
      7 C7        120.2077  132.0562   62.0839 C.ar        1 MOL      -0.0629
      8 C8        118.9860  132.3648   61.4799 C.ar        1 MOL      -0.0420
      9 N         117.1292  136.1612   62.6148 N.pl3       1 MOL      -0.2710
     10 S         116.5778  133.5102   61.2597 S.o2        1 MOL      -0.1624
     11 C9        118.2133  133.4774   61.9074 C.ar        1 MOL       0.0589
     12 C10       118.7341  134.3577   62.9178 C.ar        1 MOL       0.0329
     13 C11       116.0119  136.8360   63.0091 C.ar        1 MOL       0.0604
     14 C12       115.7051  138.0515   62.3581 C.ar        1 MOL      -0.0391
     15 C13       114.4916  138.7185   62.6250 C.ar        1 MOL      -0.0719
     16 C14       113.5677  138.1619   63.5301 C.ar        1 MOL      -0.0738
     17 C15       113.8519  136.9379   64.1646 C.ar        1 MOL      -0.0719
     18 C16       115.0707  136.2763   63.9068 C.ar        1 MOL      -0.0391
     19 O1        115.4465  133.6122   62.5219 O.co2       1 MOL      -0.4795
     20 O2        116.2305  132.1162   60.3586 O.co2       1 MOL      -0.4795
     21 O3        116.4081  134.8430   60.2254 O.co2       1 MOL      -0.4795
     22 H1        118.1846  137.1383   64.7980 H           1 MOL       0.0480
     23 H2        120.1491  136.3672   65.9311 H           1 MOL       0.0576
     24 H3        121.3213  134.4244   65.1402 H           1 MOL       0.0477
     25 H4        121.5642  132.5710   63.5967 H           1 MOL       0.0595
     26 H5        120.7432  131.2351   61.7749 H           1 MOL       0.0613
     27 H6        118.6610  131.7364   60.7398 H           1 MOL       0.0604
     28 H7        117.2226  136.0728   61.6620 H           1 MOL       0.2117
     29 H8        116.3589  138.4479   61.6791 H           1 MOL       0.0532
     30 H9        114.2819  139.6026   62.1552 H           1 MOL       0.0586
     31 H10       112.6911  138.6461   63.7218 H           1 MOL       0.0516
     32 H11       113.1615  136.5161   64.7952 H           1 MOL       0.0586
     33 H12       115.2508  135.3755   64.3522 H           1 MOL       0.0532
@<TRIPOS>BOND
     1     1     2  ar
     2     1     9   1
     3     1    12  ar
     4     2     3  ar
     5     3     4  ar
     6     4     5  ar
     7     5     6  ar
     8     5    12  ar
     9     6     7  ar
    10     7     8  ar
    11     8    11  ar
    12     9    13   1
    13    11    10   1
    14    10    19  ar
    15    10    20  ar
    16    10    21  ar
    17    11    12  ar
    18    13    14  ar
    19    13    18  ar
    20    14    15  ar
    21    15    16  ar
    22    16    17  ar
    23    17    18  ar
    24     2    22   1
    25     3    23   1
    26     4    24   1
    27     6    25   1
    28     7    26   1
    29     8    27   1
    30     9    28   1
    31    14    29   1
    32    15    30   1
    33    16    31   1
    34    17    32   1
    35    18    33   1
@<TRIPOS>SUBSTRUCTURE
     1  MOL      1

