@<TRIPOS>MOLECULE
3pxf_ligand_068
    33    35
SMALL
GAST_HUCK
****
This file was generated by PARSER (from files_GN.cpp)

@<TRIPOS>ATOM
      1 C1        121.9906  139.2993   71.4061 C.ar        1 MOL       0.0730
      2 C2        121.1384  139.2355   72.5392 C.ar        1 MOL      -0.0412
      3 C3        121.4815  138.4741   73.6611 C.ar        1 MOL      -0.0768
      4 C4        122.6741  137.7440   73.6666 C.ar        1 MOL      -0.0703
      5 C5        123.5049  137.7329   72.5252 C.ar        1 MOL      -0.0263
      6 C6        124.6894  136.9620   72.5773 C.ar        1 MOL      -0.0593
      7 C7        125.5429  136.8998   71.4749 C.ar        1 MOL      -0.0629
      8 C8        125.1959  137.5612   70.2913 C.ar        1 MOL      -0.0420
      9 N         121.7662  140.2568   70.4672 N.pl3       1 MOL      -0.2710
     10 S         123.6256  138.8103   68.5455 S.o2        1 MOL      -0.1624
     11 C9        124.0002  138.3065   70.1859 C.ar        1 MOL       0.0589
     12 C10       123.1611  138.4750   71.3436 C.ar        1 MOL       0.0329
     13 C11       120.6017  140.6611   69.8809 C.ar        1 MOL       0.0604
     14 C12       119.6750  139.7315   69.3500 C.ar        1 MOL      -0.0391
     15 C13       118.5385  140.1779   68.6492 C.ar        1 MOL      -0.0719
     16 C14       118.3278  141.5557   68.4538 C.ar        1 MOL      -0.0738
     17 C15       119.2495  142.4887   68.9727 C.ar        1 MOL      -0.0719
     18 C16       120.3852  142.0434   69.6708 C.ar        1 MOL      -0.0391
     19 O1        122.0302  138.4263   68.1396 O.co2       1 MOL      -0.4795
     20 O2        124.6414  138.0636   67.4132 O.co2       1 MOL      -0.4795
     21 O3        123.8478  140.4821   68.4183 O.co2       1 MOL      -0.4795
     22 H1        120.2993  139.8173   72.6021 H           1 MOL       0.0480
     23 H2        120.8834  138.4838   74.4888 H           1 MOL       0.0576
     24 H3        122.9228  137.2194   74.5103 H           1 MOL       0.0477
     25 H4        124.9424  136.4387   73.4239 H           1 MOL       0.0595
     26 H5        126.4014  136.3411   71.5194 H           1 MOL       0.0613
     27 H6        125.8354  137.4602   69.4995 H           1 MOL       0.0604
     28 H7        122.5497  140.7304   70.1604 H           1 MOL       0.2117
     29 H8        119.8375  138.7250   69.4562 H           1 MOL       0.0532
     30 H9        117.8762  139.5007   68.2663 H           1 MOL       0.0586
     31 H10       117.5021  141.8793   67.9404 H           1 MOL       0.0516
     32 H11       119.0966  143.4871   68.8286 H           1 MOL       0.0586
     33 H12       121.0587  142.7281   70.0249 H           1 MOL       0.0532
@<TRIPOS>BOND
     1     1     2  ar
     2     1     9   1
     3     1    12  ar
     4     2     3  ar
     5     3     4  ar
     6     4     5  ar
     7     5     6  ar
     8     5    12  ar
     9     6     7  ar
    10     7     8  ar
    11     8    11  ar
    12     9    13   1
    13    11    10   1
    14    10    19  ar
    15    10    20  ar
    16    10    21  ar
    17    11    12  ar
    18    13    14  ar
    19    13    18  ar
    20    14    15  ar
    21    15    16  ar
    22    16    17  ar
    23    17    18  ar
    24     2    22   1
    25     3    23   1
    26     4    24   1
    27     6    25   1
    28     7    26   1
    29     8    27   1
    30     9    28   1
    31    14    29   1
    32    15    30   1
    33    16    31   1
    34    17    32   1
    35    18    33   1
@<TRIPOS>SUBSTRUCTURE
     1  MOL      1

