@<TRIPOS>MOLECULE
3pxf_ligand_019
    33    35
SMALL
GAST_HUCK
****
This file was generated by PARSER (from files_GN.cpp)

@<TRIPOS>ATOM
      1 C1        111.7245  141.5734   64.1478 C.ar        1 MOL       0.0730
      2 C2        110.4647  141.4068   63.5126 C.ar        1 MOL      -0.0412
      3 C3        109.3467  142.1611   63.8886 C.ar        1 MOL      -0.0768
      4 C4        109.4776  143.1255   64.8872 C.ar        1 MOL      -0.0703
      5 C5        110.7187  143.3263   65.5329 C.ar        1 MOL      -0.0263
      6 C6        110.7701  144.3387   66.5117 C.ar        1 MOL      -0.0593
      7 C7        111.9571  144.5788   67.2061 C.ar        1 MOL      -0.0629
      8 C8        113.0761  143.7825   66.9632 C.ar        1 MOL      -0.0420
      9 N         112.7831  140.8996   63.6287 N.pl3       1 MOL      -0.2710
     10 S         114.5544  141.7892   66.1403 S.o2        1 MOL      -0.1624
     11 C9        113.0601  142.7257   66.0196 C.ar        1 MOL       0.0589
     12 C10       111.8756  142.5252   65.2128 C.ar        1 MOL       0.0329
     13 C11       112.8891  139.6020   63.1898 C.ar        1 MOL       0.0604
     14 C12       111.9002  138.6088   63.4102 C.ar        1 MOL      -0.0391
     15 C13       112.1215  137.2719   63.0233 C.ar        1 MOL      -0.0719
     16 C14       113.3507  136.9003   62.4533 C.ar        1 MOL      -0.0738
     17 C15       114.3604  137.8618   62.2691 C.ar        1 MOL      -0.0719
     18 C16       114.1275  139.2011   62.6412 C.ar        1 MOL      -0.0391
     19 O1        114.5453  140.9325   67.6063 O.co2       1 MOL      -0.4795
     20 O2        115.8588  142.8754   66.1854 O.co2       1 MOL      -0.4795
     21 O3        114.8475  140.6166   64.9566 O.co2       1 MOL      -0.4795
     22 H1        110.3516  140.7695   62.7225 H           1 MOL       0.0480
     23 H2        108.4496  142.0331   63.4122 H           1 MOL       0.0576
     24 H3        108.6568  143.6935   65.1230 H           1 MOL       0.0477
     25 H4        109.9543  144.9232   66.7241 H           1 MOL       0.0595
     26 H5        112.0040  145.3305   67.8950 H           1 MOL       0.0613
     27 H6        113.9090  143.9792   67.5272 H           1 MOL       0.0604
     28 H7        113.6156  141.3924   63.6267 H           1 MOL       0.2117
     29 H8        111.0204  138.8439   63.8770 H           1 MOL       0.0532
     30 H9        111.4021  136.5631   63.1838 H           1 MOL       0.0586
     31 H10       113.5124  135.9285   62.1837 H           1 MOL       0.0516
     32 H11       115.2635  137.5835   61.8801 H           1 MOL       0.0586
     33 H12       114.8751  139.8832   62.5214 H           1 MOL       0.0532
@<TRIPOS>BOND
     1     1     2  ar
     2     1     9   1
     3     1    12  ar
     4     2     3  ar
     5     3     4  ar
     6     4     5  ar
     7     5     6  ar
     8     5    12  ar
     9     6     7  ar
    10     7     8  ar
    11     8    11  ar
    12     9    13   1
    13    11    10   1
    14    10    19  ar
    15    10    20  ar
    16    10    21  ar
    17    11    12  ar
    18    13    14  ar
    19    13    18  ar
    20    14    15  ar
    21    15    16  ar
    22    16    17  ar
    23    17    18  ar
    24     2    22   1
    25     3    23   1
    26     4    24   1
    27     6    25   1
    28     7    26   1
    29     8    27   1
    30     9    28   1
    31    14    29   1
    32    15    30   1
    33    16    31   1
    34    17    32   1
    35    18    33   1
@<TRIPOS>SUBSTRUCTURE
     1  MOL      1

