@<TRIPOS>MOLECULE
3pxf_ligand_056
    33    35
SMALL
GAST_HUCK
****
This file was generated by PARSER (from files_GN.cpp)

@<TRIPOS>ATOM
      1 C1        117.2569  133.6116   64.1054 C.ar        1 MOL       0.0730
      2 C2        118.1203  134.0092   65.1536 C.ar        1 MOL      -0.0412
      3 C3        118.1457  135.3362   65.6037 C.ar        1 MOL      -0.0768
      4 C4        117.3079  136.2865   65.0089 C.ar        1 MOL      -0.0703
      5 C5        116.4577  135.9211   63.9454 C.ar        1 MOL      -0.0263
      6 C6        115.6406  136.9229   63.3775 C.ar        1 MOL      -0.0593
      7 C7        114.7818  136.6226   62.3189 C.ar        1 MOL      -0.0629
      8 C8        114.7629  135.3272   61.7926 C.ar        1 MOL      -0.0420
      9 N         117.1549  132.2830   63.8479 N.pl3       1 MOL      -0.2710
     10 S         115.6104  132.8426   61.3156 S.o2        1 MOL      -0.1624
     11 C9        115.6011  134.3047   62.2949 C.ar        1 MOL       0.0589
     12 C10       116.4146  134.5711   63.4496 C.ar        1 MOL       0.0329
     13 C11       118.1402  131.3825   63.5446 C.ar        1 MOL       0.0604
     14 C12       117.7349  130.0793   63.1818 C.ar        1 MOL      -0.0391
     15 C13       118.6615  129.1477   62.6789 C.ar        1 MOL      -0.0719
     16 C14       120.0100  129.5078   62.5187 C.ar        1 MOL      -0.0738
     17 C15       120.4256  130.8101   62.8440 C.ar        1 MOL      -0.0719
     18 C16       119.4983  131.7384   63.3520 C.ar        1 MOL      -0.0391
     19 O1        114.8674  133.0806   59.8150 O.co2       1 MOL      -0.4795
     20 O2        114.7742  131.6153   62.1263 O.co2       1 MOL      -0.4795
     21 O3        117.1991  132.3504   61.0097 O.co2       1 MOL      -0.4795
     22 H1        118.6922  133.3196   65.6529 H           1 MOL       0.0480
     23 H2        118.7404  135.5972   66.3926 H           1 MOL       0.0576
     24 H3        117.3293  137.2442   65.3624 H           1 MOL       0.0477
     25 H4        115.6614  137.8844   63.7284 H           1 MOL       0.0595
     26 H5        114.1906  137.3509   61.9094 H           1 MOL       0.0613
     27 H6        114.1360  135.1566   61.0015 H           1 MOL       0.0604
     28 H7        116.2563  131.9746   63.6715 H           1 MOL       0.2117
     29 H8        116.7499  129.8042   63.2498 H           1 MOL       0.0532
     30 H9        118.3520  128.2085   62.4102 H           1 MOL       0.0586
     31 H10       120.6840  128.8367   62.1514 H           1 MOL       0.0516
     32 H11       121.3984  131.0910   62.6885 H           1 MOL       0.0586
     33 H12       119.8133  132.6987   63.5195 H           1 MOL       0.0532
@<TRIPOS>BOND
     1     1     2  ar
     2     1     9   1
     3     1    12  ar
     4     2     3  ar
     5     3     4  ar
     6     4     5  ar
     7     5     6  ar
     8     5    12  ar
     9     6     7  ar
    10     7     8  ar
    11     8    11  ar
    12     9    13   1
    13    11    10   1
    14    10    19  ar
    15    10    20  ar
    16    10    21  ar
    17    11    12  ar
    18    13    14  ar
    19    13    18  ar
    20    14    15  ar
    21    15    16  ar
    22    16    17  ar
    23    17    18  ar
    24     2    22   1
    25     3    23   1
    26     4    24   1
    27     6    25   1
    28     7    26   1
    29     8    27   1
    30     9    28   1
    31    14    29   1
    32    15    30   1
    33    16    31   1
    34    17    32   1
    35    18    33   1
@<TRIPOS>SUBSTRUCTURE
     1  MOL      1

