@<TRIPOS>MOLECULE
3pxf_ligand_003
    33    35
SMALL
GAST_HUCK
****
This file was generated by PARSER (from files_GN.cpp)

@<TRIPOS>ATOM
      1 C1        115.4913  134.5913   63.0824 C.ar        1 MOL       0.0730
      2 C2        116.7640  135.1200   63.4161 C.ar        1 MOL      -0.0412
      3 C3        116.9338  136.4787   63.7053 C.ar        1 MOL      -0.0768
      4 C4        115.8275  137.3318   63.7044 C.ar        1 MOL      -0.0703
      5 C5        114.5507  136.8419   63.3606 C.ar        1 MOL      -0.0263
      6 C6        113.4599  137.7350   63.4262 C.ar        1 MOL      -0.0593
      7 C7        112.1788  137.3137   63.0647 C.ar        1 MOL      -0.0629
      8 C8        111.9908  136.0227   62.5605 C.ar        1 MOL      -0.0420
      9 N         115.3368  133.2396   63.0358 N.pl3       1 MOL      -0.2710
     10 S         112.6646  133.6371   61.5838 S.o2        1 MOL      -0.1624
     11 C9        113.0665  135.1089   62.4604 C.ar        1 MOL       0.0589
     12 C10       114.3654  135.4741   62.9613 C.ar        1 MOL       0.0329
     13 C11       116.1645  132.2603   62.5614 C.ar        1 MOL       0.0604
     14 C12       117.0421  132.4598   61.4639 C.ar        1 MOL      -0.0391
     15 C13       117.8105  131.3915   60.9582 C.ar        1 MOL      -0.0719
     16 C14       117.6966  130.1113   61.5277 C.ar        1 MOL      -0.0738
     17 C15       116.8058  129.8944   62.5973 C.ar        1 MOL      -0.0719
     18 C16       116.0327  130.9607   63.0968 C.ar        1 MOL      -0.0391
     19 O1        111.9587  132.5506   62.6730 O.co2       1 MOL      -0.4795
     20 O2        114.0243  132.9422   60.8533 O.co2       1 MOL      -0.4795
     21 O3        111.5533  133.9208   60.3402 O.co2       1 MOL      -0.4795
     22 H1        117.5732  134.5098   63.5414 H           1 MOL       0.0480
     23 H2        117.8545  136.8367   63.9677 H           1 MOL       0.0576
     24 H3        115.9652  138.3139   63.9534 H           1 MOL       0.0477
     25 H4        113.5853  138.6982   63.7482 H           1 MOL       0.0595
     26 H5        111.3890  137.9613   63.1273 H           1 MOL       0.0613
     27 H6        111.0480  135.7670   62.2515 H           1 MOL       0.0604
     28 H7        114.5065  132.9096   63.3979 H           1 MOL       0.2117
     29 H8        117.1152  133.3751   61.0186 H           1 MOL       0.0532
     30 H9        118.4465  131.5450   60.1703 H           1 MOL       0.0586
     31 H10       118.2434  129.3334   61.1565 H           1 MOL       0.0516
     32 H11       116.7169  128.9637   63.0095 H           1 MOL       0.0586
     33 H12       115.3847  130.7886   63.8708 H           1 MOL       0.0532
@<TRIPOS>BOND
     1     1     2  ar
     2     1     9   1
     3     1    12  ar
     4     2     3  ar
     5     3     4  ar
     6     4     5  ar
     7     5     6  ar
     8     5    12  ar
     9     6     7  ar
    10     7     8  ar
    11     8    11  ar
    12     9    13   1
    13    11    10   1
    14    10    19  ar
    15    10    20  ar
    16    10    21  ar
    17    11    12  ar
    18    13    14  ar
    19    13    18  ar
    20    14    15  ar
    21    15    16  ar
    22    16    17  ar
    23    17    18  ar
    24     2    22   1
    25     3    23   1
    26     4    24   1
    27     6    25   1
    28     7    26   1
    29     8    27   1
    30     9    28   1
    31    14    29   1
    32    15    30   1
    33    16    31   1
    34    17    32   1
    35    18    33   1
@<TRIPOS>SUBSTRUCTURE
     1  MOL      1

