@<TRIPOS>MOLECULE
3pxf_ligand_067
    33    35
SMALL
GAST_HUCK
****
This file was generated by PARSER (from files_GN.cpp)

@<TRIPOS>ATOM
      1 C1        129.7136  129.9298   65.4200 C.ar        1 MOL       0.0730
      2 C2        131.1284  129.9228   65.3689 C.ar        1 MOL      -0.0412
      3 C3        131.8450  130.9694   64.7808 C.ar        1 MOL      -0.0768
      4 C4        131.1562  132.0313   64.1925 C.ar        1 MOL      -0.0703
      5 C5        129.7450  132.0734   64.2239 C.ar        1 MOL      -0.0263
      6 C6        129.1144  133.1931   63.6376 C.ar        1 MOL      -0.0593
      7 C7        127.7251  133.3182   63.6686 C.ar        1 MOL      -0.0629
      8 C8        126.9520  132.3402   64.3061 C.ar        1 MOL      -0.0420
      9 N         129.0771  128.8342   65.9061 N.pl3       1 MOL      -0.2710
     10 S         126.4071  130.2423   65.8663 S.o2        1 MOL      -0.1624
     11 C9        127.5460  131.2131   64.9269 C.ar        1 MOL       0.0589
     12 C10       128.9764  131.0312   64.8594 C.ar        1 MOL       0.0329
     13 C11       129.3929  127.9170   66.8715 C.ar        1 MOL       0.0604
     14 C12       130.3485  128.1298   67.8936 C.ar        1 MOL      -0.0391
     15 C13       130.4996  127.2040   68.9418 C.ar        1 MOL      -0.0719
     16 C14       129.6671  126.0713   69.0048 C.ar        1 MOL      -0.0738
     17 C15       128.6909  125.8619   68.0184 C.ar        1 MOL      -0.0719
     18 C16       128.5523  126.7787   66.9621 C.ar        1 MOL      -0.0391
     19 O1        124.8998  130.9945   66.0461 O.co2       1 MOL      -0.4795
     20 O2        127.0351  129.9942   67.4161 O.co2       1 MOL      -0.4795
     21 O3        126.1447  128.7394   65.1180 O.co2       1 MOL      -0.4795
     22 H1        131.6628  129.1213   65.7059 H           1 MOL       0.0480
     23 H2        132.8685  130.9414   64.7585 H           1 MOL       0.0576
     24 H3        131.7028  132.7810   63.7594 H           1 MOL       0.0477
     25 H4        129.6615  133.9333   63.1879 H           1 MOL       0.0595
     26 H5        127.2794  134.1377   63.2552 H           1 MOL       0.0613
     27 H6        125.9413  132.4895   64.3200 H           1 MOL       0.0604
     28 H7        128.1878  128.7225   65.5618 H           1 MOL       0.2117
     29 H8        130.9109  128.9815   67.9204 H           1 MOL       0.0532
     30 H9        131.1857  127.3794   69.6791 H           1 MOL       0.0586
     31 H10       129.7649  125.4109   69.7797 H           1 MOL       0.0516
     32 H11       128.0663  125.0553   68.0773 H           1 MOL       0.0586
     33 H12       127.8103  126.6279   66.2718 H           1 MOL       0.0532
@<TRIPOS>BOND
     1     1     2  ar
     2     1     9   1
     3     1    12  ar
     4     2     3  ar
     5     3     4  ar
     6     4     5  ar
     7     5     6  ar
     8     5    12  ar
     9     6     7  ar
    10     7     8  ar
    11     8    11  ar
    12     9    13   1
    13    11    10   1
    14    10    19  ar
    15    10    20  ar
    16    10    21  ar
    17    11    12  ar
    18    13    14  ar
    19    13    18  ar
    20    14    15  ar
    21    15    16  ar
    22    16    17  ar
    23    17    18  ar
    24     2    22   1
    25     3    23   1
    26     4    24   1
    27     6    25   1
    28     7    26   1
    29     8    27   1
    30     9    28   1
    31    14    29   1
    32    15    30   1
    33    16    31   1
    34    17    32   1
    35    18    33   1
@<TRIPOS>SUBSTRUCTURE
     1  MOL      1

