@<TRIPOS>MOLECULE
3pxf_ligand_029
    33    35
SMALL
GAST_HUCK
****
This file was generated by PARSER (from files_GN.cpp)

@<TRIPOS>ATOM
      1 C1        114.1055  133.1322   62.1172 C.ar        1 MOL       0.0730
      2 C2        113.1752  132.8975   63.1626 C.ar        1 MOL      -0.0412
      3 C3        113.2912  131.7984   64.0170 C.ar        1 MOL      -0.0768
      4 C4        114.3305  130.8860   63.8278 C.ar        1 MOL      -0.0703
      5 C5        115.3005  131.1071   62.8250 C.ar        1 MOL      -0.0263
      6 C6        116.3244  130.1423   62.6902 C.ar        1 MOL      -0.0593
      7 C7        117.3399  130.3249   61.7495 C.ar        1 MOL      -0.0629
      8 C8        117.3715  131.4929   60.9842 C.ar        1 MOL      -0.0420
      9 N         113.8238  134.1122   61.2118 N.pl3       1 MOL      -0.2710
     10 S         116.7538  133.9861   60.2777 S.o2        1 MOL      -0.1624
     11 C9        116.3760  132.4897   61.1175 C.ar        1 MOL       0.0589
     12 C10       115.2524  132.2741   61.9885 C.ar        1 MOL       0.0329
     13 C11       112.8192  135.0303   61.2503 C.ar        1 MOL       0.0604
     14 C12       113.1004  136.3909   61.5146 C.ar        1 MOL      -0.0391
     15 C13       112.0519  137.3316   61.5767 C.ar        1 MOL      -0.0719
     16 C14       110.7192  136.9201   61.3849 C.ar        1 MOL      -0.0738
     17 C15       110.4344  135.5663   61.1217 C.ar        1 MOL      -0.0719
     18 C16       111.4839  134.6281   61.0391 C.ar        1 MOL      -0.0391
     19 O1        116.4095  135.3211   61.2643 O.co2       1 MOL      -0.4795
     20 O2        115.8425  134.0644   58.8512 O.co2       1 MOL      -0.4795
     21 O3        118.3920  134.0758   59.8571 O.co2       1 MOL      -0.4795
     22 H1        112.3577  133.4981   63.2905 H           1 MOL       0.0480
     23 H2        112.6079  131.6592   64.7610 H           1 MOL       0.0576
     24 H3        114.3892  130.0715   64.4519 H           1 MOL       0.0477
     25 H4        116.3341  129.2947   63.2629 H           1 MOL       0.0595
     26 H5        118.0682  129.6161   61.6388 H           1 MOL       0.0613
     27 H6        118.1543  131.6071   60.3333 H           1 MOL       0.0604
     28 H7        114.3708  134.1401   60.4157 H           1 MOL       0.2117
     29 H8        114.0599  136.6990   61.6693 H           1 MOL       0.0532
     30 H9        112.2596  138.3167   61.7678 H           1 MOL       0.0586
     31 H10       109.9608  137.5972   61.4494 H           1 MOL       0.0516
     32 H11       109.4688  135.2632   60.9962 H           1 MOL       0.0586
     33 H12       111.2664  133.6447   60.8589 H           1 MOL       0.0532
@<TRIPOS>BOND
     1     1     2  ar
     2     1     9   1
     3     1    12  ar
     4     2     3  ar
     5     3     4  ar
     6     4     5  ar
     7     5     6  ar
     8     5    12  ar
     9     6     7  ar
    10     7     8  ar
    11     8    11  ar
    12     9    13   1
    13    11    10   1
    14    10    19  ar
    15    10    20  ar
    16    10    21  ar
    17    11    12  ar
    18    13    14  ar
    19    13    18  ar
    20    14    15  ar
    21    15    16  ar
    22    16    17  ar
    23    17    18  ar
    24     2    22   1
    25     3    23   1
    26     4    24   1
    27     6    25   1
    28     7    26   1
    29     8    27   1
    30     9    28   1
    31    14    29   1
    32    15    30   1
    33    16    31   1
    34    17    32   1
    35    18    33   1
@<TRIPOS>SUBSTRUCTURE
     1  MOL      1

