@<TRIPOS>MOLECULE
3pxf_ligand_054
    33    35
SMALL
GAST_HUCK
****
This file was generated by PARSER (from files_GN.cpp)

@<TRIPOS>ATOM
      1 C1        130.0077  130.1459   64.9082 C.ar        1 MOL       0.0730
      2 C2        129.9321  128.7333   64.9367 C.ar        1 MOL      -0.0412
      3 C3        128.7301  128.0854   65.2480 C.ar        1 MOL      -0.0768
      4 C4        127.5817  128.8428   65.5106 C.ar        1 MOL      -0.0703
      5 C5        127.6053  130.2475   65.3644 C.ar        1 MOL      -0.0263
      6 C6        126.4155  130.9701   65.5944 C.ar        1 MOL      -0.0593
      7 C7        126.3760  132.3510   65.3742 C.ar        1 MOL      -0.0629
      8 C8        127.4981  132.9986   64.8416 C.ar        1 MOL      -0.0420
      9 N         131.2842  130.6137   64.9664 N.pl3       1 MOL      -0.2710
     10 S         129.8303  133.1883   63.5766 S.o2        1 MOL      -0.1624
     11 C9        128.7018  132.3014   64.5874 C.ar        1 MOL       0.0589
     12 C10       128.8069  130.9222   64.9653 C.ar        1 MOL       0.0329
     13 C11       131.7822  131.5818   65.7991 C.ar        1 MOL       0.0604
     14 C12       133.0559  132.1056   65.4854 C.ar        1 MOL      -0.0391
     15 C13       133.6716  133.0597   66.3179 C.ar        1 MOL      -0.0719
     16 C14       133.0418  133.4759   67.5044 C.ar        1 MOL      -0.0738
     17 C15       131.8027  132.9182   67.8653 C.ar        1 MOL      -0.0719
     18 C16       131.1787  131.9753   67.0222 C.ar        1 MOL      -0.0391
     19 O1        130.9487  132.2007   62.7841 O.co2       1 MOL      -0.4795
     20 O2        130.6392  134.3240   64.5298 O.co2       1 MOL      -0.4795
     21 O3        128.9724  134.0157   62.3759 O.co2       1 MOL      -0.4795
     22 H1        130.7759  128.1577   64.8474 H           1 MOL       0.0480
     23 H2        128.7025  127.0675   65.3474 H           1 MOL       0.0576
     24 H3        126.7231  128.3595   65.7936 H           1 MOL       0.0477
     25 H4        125.5672  130.4985   65.9188 H           1 MOL       0.0595
     26 H5        125.5120  132.8714   65.5474 H           1 MOL       0.0613
     27 H6        127.4066  133.9919   64.6099 H           1 MOL       0.0604
     28 H7        131.9614  130.0272   64.5861 H           1 MOL       0.2117
     29 H8        133.5410  131.8046   64.6378 H           1 MOL       0.0532
     30 H9        134.5823  133.4506   66.0614 H           1 MOL       0.0586
     31 H10       133.4922  134.1699   68.1085 H           1 MOL       0.0516
     32 H11       131.3613  133.1970   68.7440 H           1 MOL       0.0586
     33 H12       130.2991  131.5503   67.3276 H           1 MOL       0.0532
@<TRIPOS>BOND
     1     1     2  ar
     2     1     9   1
     3     1    12  ar
     4     2     3  ar
     5     3     4  ar
     6     4     5  ar
     7     5     6  ar
     8     5    12  ar
     9     6     7  ar
    10     7     8  ar
    11     8    11  ar
    12     9    13   1
    13    11    10   1
    14    10    19  ar
    15    10    20  ar
    16    10    21  ar
    17    11    12  ar
    18    13    14  ar
    19    13    18  ar
    20    14    15  ar
    21    15    16  ar
    22    16    17  ar
    23    17    18  ar
    24     2    22   1
    25     3    23   1
    26     4    24   1
    27     6    25   1
    28     7    26   1
    29     8    27   1
    30     9    28   1
    31    14    29   1
    32    15    30   1
    33    16    31   1
    34    17    32   1
    35    18    33   1
@<TRIPOS>SUBSTRUCTURE
     1  MOL      1

