@<TRIPOS>MOLECULE
3pxf_ligand_031
    33    35
SMALL
GAST_HUCK
****
This file was generated by PARSER (from files_GN.cpp)

@<TRIPOS>ATOM
      1 C1        117.7672  133.5596   63.7621 C.ar        1 MOL       0.0730
      2 C2        117.9318  133.8496   65.1347 C.ar        1 MOL      -0.0412
      3 C3        117.9371  135.1713   65.5848 C.ar        1 MOL      -0.0768
      4 C4        117.7541  136.2275   64.6764 C.ar        1 MOL      -0.0703
      5 C5        117.6170  135.9542   63.3025 C.ar        1 MOL      -0.0263
      6 C6        117.4300  137.0369   62.4190 C.ar        1 MOL      -0.0593
      7 C7        117.3677  136.8318   61.0391 C.ar        1 MOL      -0.0629
      8 C8        117.5221  135.5382   60.5246 C.ar        1 MOL      -0.0420
      9 N         117.5906  132.2659   63.3911 N.pl3       1 MOL      -0.2710
     10 S         118.2407  132.9566   60.5357 S.o2        1 MOL      -0.1624
     11 C9        117.7275  134.4250   61.3756 C.ar        1 MOL       0.0589
     12 C10       117.6826  134.6125   62.8018 C.ar        1 MOL       0.0329
     13 C11       118.4611  131.2160   63.4577 C.ar        1 MOL       0.0604
     14 C12       119.8308  131.3558   63.7922 C.ar        1 MOL      -0.0391
     15 C13       120.7445  130.2962   63.5791 C.ar        1 MOL      -0.0719
     16 C14       120.2956  129.0869   63.0269 C.ar        1 MOL      -0.0738
     17 C15       118.9236  128.9164   62.7463 C.ar        1 MOL      -0.0719
     18 C16       118.0145  129.9807   62.9564 C.ar        1 MOL      -0.0391
     19 O1        118.8498  133.2594   58.9911 O.co2       1 MOL      -0.4795
     20 O2        116.9213  131.9086   60.3429 O.co2       1 MOL      -0.4795
     21 O3        119.4643  132.1672   61.3931 O.co2       1 MOL      -0.4795
     22 H1        117.9642  133.1134   65.8401 H           1 MOL       0.0480
     23 H2        117.9940  135.3775   66.5957 H           1 MOL       0.0576
     24 H3        117.6893  137.1793   65.0311 H           1 MOL       0.0477
     25 H4        117.3412  138.0008   62.7642 H           1 MOL       0.0595
     26 H5        117.2644  137.6258   60.4080 H           1 MOL       0.0613
     27 H6        117.5125  135.4289   59.5033 H           1 MOL       0.0604
     28 H7        116.8308  132.1282   62.7936 H           1 MOL       0.2117
     29 H8        120.2063  132.2397   64.1458 H           1 MOL       0.0532
     30 H9        121.7327  130.4018   63.8072 H           1 MOL       0.0586
     31 H10       120.9519  128.3123   62.8703 H           1 MOL       0.0516
     32 H11       118.5875  128.0233   62.3602 H           1 MOL       0.0586
     33 H12       117.0402  129.8459   62.6969 H           1 MOL       0.0532
@<TRIPOS>BOND
     1     1     2  ar
     2     1     9   1
     3     1    12  ar
     4     2     3  ar
     5     3     4  ar
     6     4     5  ar
     7     5     6  ar
     8     5    12  ar
     9     6     7  ar
    10     7     8  ar
    11     8    11  ar
    12     9    13   1
    13    11    10   1
    14    10    19  ar
    15    10    20  ar
    16    10    21  ar
    17    11    12  ar
    18    13    14  ar
    19    13    18  ar
    20    14    15  ar
    21    15    16  ar
    22    16    17  ar
    23    17    18  ar
    24     2    22   1
    25     3    23   1
    26     4    24   1
    27     6    25   1
    28     7    26   1
    29     8    27   1
    30     9    28   1
    31    14    29   1
    32    15    30   1
    33    16    31   1
    34    17    32   1
    35    18    33   1
@<TRIPOS>SUBSTRUCTURE
     1  MOL      1

