@<TRIPOS>MOLECULE
3pxf_ligand_011
    33    35
SMALL
GAST_HUCK
****
This file was generated by PARSER (from files_GN.cpp)

@<TRIPOS>ATOM
      1 C1        115.5418  131.6409   62.1567 C.ar        1 MOL       0.0730
      2 C2        114.8061  131.0880   63.2381 C.ar        1 MOL      -0.0412
      3 C3        115.1729  129.8698   63.8197 C.ar        1 MOL      -0.0768
      4 C4        116.2978  129.1934   63.3503 C.ar        1 MOL      -0.0703
      5 C5        117.0863  129.7509   62.3214 C.ar        1 MOL      -0.0263
      6 C6        118.2177  129.0172   61.9174 C.ar        1 MOL      -0.0593
      7 C7        119.0491  129.5052   60.9062 C.ar        1 MOL      -0.0629
      8 C8        118.7801  130.7484   60.3305 C.ar        1 MOL      -0.0420
      9 N         115.0062  132.6788   61.4644 N.pl3       1 MOL      -0.2710
     10 S         117.7266  133.1872   60.1341 S.o2        1 MOL      -0.1624
     11 C9        117.6762  131.5372   60.7367 C.ar        1 MOL       0.0589
     12 C10       116.7519  131.0096   61.7111 C.ar        1 MOL       0.0329
     13 C11       113.9565  133.4858   61.7839 C.ar        1 MOL       0.0604
     14 C12       114.0425  134.4328   62.8289 C.ar        1 MOL      -0.0391
     15 C13       112.9767  135.3254   63.0617 C.ar        1 MOL      -0.0719
     16 C14       111.8181  135.2647   62.2664 C.ar        1 MOL      -0.0738
     17 C15       111.7341  134.3271   61.2198 C.ar        1 MOL      -0.0719
     18 C16       112.8059  133.4506   60.9698 C.ar        1 MOL      -0.0391
     19 O1        116.3135  133.5646   59.2858 O.co2       1 MOL      -0.4795
     20 O2        119.0288  133.4097   59.0757 O.co2       1 MOL      -0.4795
     21 O3        117.9008  134.2601   61.4292 O.co2       1 MOL      -0.4795
     22 H1        113.9436  131.5267   63.5706 H           1 MOL       0.0480
     23 H2        114.6002  129.4488   64.5495 H           1 MOL       0.0576
     24 H3        116.5284  128.2819   63.7565 H           1 MOL       0.0477
     25 H4        118.4454  128.1182   62.3532 H           1 MOL       0.0595
     26 H5        119.8728  128.9752   60.6270 H           1 MOL       0.0613
     27 H6        119.4541  131.0775   59.6365 H           1 MOL       0.0604
     28 H7        115.3346  132.7923   60.5712 H           1 MOL       0.2117
     29 H8        114.8822  134.4916   63.4131 H           1 MOL       0.0532
     30 H9        113.0481  136.0322   63.8010 H           1 MOL       0.0586
     31 H10       111.0539  135.9253   62.4201 H           1 MOL       0.0516
     32 H11       110.8998  134.2925   60.6262 H           1 MOL       0.0586
     33 H12       112.7321  132.7670   60.2088 H           1 MOL       0.0532
@<TRIPOS>BOND
     1     1     2  ar
     2     1     9   1
     3     1    12  ar
     4     2     3  ar
     5     3     4  ar
     6     4     5  ar
     7     5     6  ar
     8     5    12  ar
     9     6     7  ar
    10     7     8  ar
    11     8    11  ar
    12     9    13   1
    13    11    10   1
    14    10    19  ar
    15    10    20  ar
    16    10    21  ar
    17    11    12  ar
    18    13    14  ar
    19    13    18  ar
    20    14    15  ar
    21    15    16  ar
    22    16    17  ar
    23    17    18  ar
    24     2    22   1
    25     3    23   1
    26     4    24   1
    27     6    25   1
    28     7    26   1
    29     8    27   1
    30     9    28   1
    31    14    29   1
    32    15    30   1
    33    16    31   1
    34    17    32   1
    35    18    33   1
@<TRIPOS>SUBSTRUCTURE
     1  MOL      1

