@<TRIPOS>MOLECULE
3pxf_ligand_042
    33    35
SMALL
GAST_HUCK
****
This file was generated by PARSER (from files_GN.cpp)

@<TRIPOS>ATOM
      1 C1        126.8229  132.1799   71.5518 C.ar        1 MOL       0.0730
      2 C2        127.1483  133.0665   70.4987 C.ar        1 MOL      -0.0412
      3 C3        127.0515  134.4540   70.6771 C.ar        1 MOL      -0.0768
      4 C4        126.6682  134.9668   71.9211 C.ar        1 MOL      -0.0703
      5 C5        126.4155  134.1011   73.0050 C.ar        1 MOL      -0.0263
      6 C6        126.1082  134.6736   74.2556 C.ar        1 MOL      -0.0593
      7 C7        125.8741  133.8616   75.3674 C.ar        1 MOL      -0.0629
      8 C8        125.9855  132.4745   75.2519 C.ar        1 MOL      -0.0420
      9 N         126.6451  130.8849   71.2117 N.pl3       1 MOL      -0.2710
     10 S         126.6775  130.1303   74.1580 S.o2        1 MOL      -0.1624
     11 C9        126.3227  131.8547   74.0241 C.ar        1 MOL       0.0589
     12 C10       126.4950  132.6765   72.8535 C.ar        1 MOL       0.0329
     13 C11       127.5684  130.0101   70.7217 C.ar        1 MOL       0.0604
     14 C12       127.1538  128.6840   70.5008 C.ar        1 MOL      -0.0391
     15 C13       128.0873  127.6644   70.2645 C.ar        1 MOL      -0.0719
     16 C14       129.4640  127.9608   70.2875 C.ar        1 MOL      -0.0738
     17 C15       129.8950  129.2791   70.4899 C.ar        1 MOL      -0.0719
     18 C16       128.9564  130.3066   70.6946 C.ar        1 MOL      -0.0391
     19 O1        126.7467  129.6058   75.7629 O.co2       1 MOL      -0.4795
     20 O2        128.1887  129.8135   73.4636 O.co2       1 MOL      -0.4795
     21 O3        125.4971  129.2007   73.3908 O.co2       1 MOL      -0.4795
     22 H1        127.3817  132.7034   69.5659 H           1 MOL       0.0480
     23 H2        127.2510  135.0944   69.8976 H           1 MOL       0.0576
     24 H3        126.6051  135.9861   72.0266 H           1 MOL       0.0477
     25 H4        126.0566  135.6875   74.3757 H           1 MOL       0.0595
     26 H5        125.6494  134.2777   76.2730 H           1 MOL       0.0613
     27 H6        125.8311  131.9237   76.1004 H           1 MOL       0.0604
     28 H7        125.8527  130.4563   71.5729 H           1 MOL       0.2117
     29 H8        126.1555  128.4404   70.5481 H           1 MOL       0.0532
     30 H9        127.7720  126.7013   70.1031 H           1 MOL       0.0586
     31 H10       130.1425  127.2083   70.1756 H           1 MOL       0.0516
     32 H11       130.8968  129.4918   70.5362 H           1 MOL       0.0586
     33 H12       129.2909  131.2498   70.9082 H           1 MOL       0.0532
@<TRIPOS>BOND
     1     1     2  ar
     2     1     9   1
     3     1    12  ar
     4     2     3  ar
     5     3     4  ar
     6     4     5  ar
     7     5     6  ar
     8     5    12  ar
     9     6     7  ar
    10     7     8  ar
    11     8    11  ar
    12     9    13   1
    13    11    10   1
    14    10    19  ar
    15    10    20  ar
    16    10    21  ar
    17    11    12  ar
    18    13    14  ar
    19    13    18  ar
    20    14    15  ar
    21    15    16  ar
    22    16    17  ar
    23    17    18  ar
    24     2    22   1
    25     3    23   1
    26     4    24   1
    27     6    25   1
    28     7    26   1
    29     8    27   1
    30     9    28   1
    31    14    29   1
    32    15    30   1
    33    16    31   1
    34    17    32   1
    35    18    33   1
@<TRIPOS>SUBSTRUCTURE
     1  MOL      1

