@<TRIPOS>MOLECULE
3pxf_ligand_065
    33    35
SMALL
GAST_HUCK
****
This file was generated by PARSER (from files_GN.cpp)

@<TRIPOS>ATOM
      1 C1        118.7625  141.0656   72.1571 C.ar        1 MOL       0.0730
      2 C2        119.0911  141.1322   73.5289 C.ar        1 MOL      -0.0412
      3 C3        120.0842  140.3084   74.0817 C.ar        1 MOL      -0.0768
      4 C4        120.7753  139.4071   73.2650 C.ar        1 MOL      -0.0703
      5 C5        120.4477  139.2947   71.9020 C.ar        1 MOL      -0.0263
      6 C6        121.1906  138.3767   71.1203 C.ar        1 MOL      -0.0593
      7 C7        120.9087  138.2305   69.7586 C.ar        1 MOL      -0.0629
      8 C8        119.8553  138.9424   69.1812 C.ar        1 MOL      -0.0420
      9 N         117.8636  141.9859   71.7435 N.pl3       1 MOL      -0.2710
     10 S         117.6431  140.4398   69.1009 S.o2        1 MOL      -0.1624
     11 C9        119.0611  139.8377   69.9413 C.ar        1 MOL       0.0589
     12 C10       119.3950  140.0906   71.3176 C.ar        1 MOL       0.0329
     13 C11       118.1333  143.2958   71.4632 C.ar        1 MOL       0.0604
     14 C12       117.0495  144.1985   71.3863 C.ar        1 MOL      -0.0391
     15 C13       117.2545  145.5606   71.0812 C.ar        1 MOL      -0.0719
     16 C14       118.5502  146.0388   70.8210 C.ar        1 MOL      -0.0738
     17 C15       119.6406  145.1553   70.9063 C.ar        1 MOL      -0.0719
     18 C16       119.4325  143.7991   71.2340 C.ar        1 MOL      -0.0391
     19 O1        116.2476  140.1712   70.0177 O.co2       1 MOL      -0.4795
     20 O2        117.4385  139.6610   67.6141 O.co2       1 MOL      -0.4795
     21 O3        117.7980  142.0909   68.7741 O.co2       1 MOL      -0.4795
     22 H1        118.6531  141.8212   74.1448 H           1 MOL       0.0480
     23 H2        120.3442  140.4060   75.0741 H           1 MOL       0.0576
     24 H3        121.5164  138.8378   73.6798 H           1 MOL       0.0477
     25 H4        121.9450  137.8264   71.5250 H           1 MOL       0.0595
     26 H5        121.4609  137.5728   69.1906 H           1 MOL       0.0613
     27 H6        119.6524  138.7564   68.1992 H           1 MOL       0.0604
     28 H7        116.9599  141.8630   72.1582 H           1 MOL       0.2117
     29 H8        116.0943  143.8842   71.5662 H           1 MOL       0.0532
     30 H9        116.4549  146.2063   71.0327 H           1 MOL       0.0586
     31 H10       118.6990  147.0115   70.5806 H           1 MOL       0.0516
     32 H11       120.5930  145.5071   70.7516 H           1 MOL       0.0586
     33 H12       120.2470  143.1733   71.2604 H           1 MOL       0.0532
@<TRIPOS>BOND
     1     1     2  ar
     2     1     9   1
     3     1    12  ar
     4     2     3  ar
     5     3     4  ar
     6     4     5  ar
     7     5     6  ar
     8     5    12  ar
     9     6     7  ar
    10     7     8  ar
    11     8    11  ar
    12     9    13   1
    13    11    10   1
    14    10    19  ar
    15    10    20  ar
    16    10    21  ar
    17    11    12  ar
    18    13    14  ar
    19    13    18  ar
    20    14    15  ar
    21    15    16  ar
    22    16    17  ar
    23    17    18  ar
    24     2    22   1
    25     3    23   1
    26     4    24   1
    27     6    25   1
    28     7    26   1
    29     8    27   1
    30     9    28   1
    31    14    29   1
    32    15    30   1
    33    16    31   1
    34    17    32   1
    35    18    33   1
@<TRIPOS>SUBSTRUCTURE
     1  MOL      1

