@<TRIPOS>MOLECULE
3pxf_ligand_001
    33    35
SMALL
GAST_HUCK
****
This file was generated by PARSER (from files_GN.cpp)

@<TRIPOS>ATOM
      1 C1        116.6530  132.8937   60.9591 C.ar        1 MOL       0.0730
      2 C2        117.5949  132.5434   59.9666 C.ar        1 MOL      -0.0412
      3 C3        118.1975  131.2754   59.9687 C.ar        1 MOL      -0.0768
      4 C4        117.8496  130.3384   60.9515 C.ar        1 MOL      -0.0703
      5 C5        116.8257  130.6266   61.8763 C.ar        1 MOL      -0.0263
      6 C6        116.4703  129.6280   62.8087 C.ar        1 MOL      -0.0593
      7 C7        115.3867  129.8276   63.6730 C.ar        1 MOL      -0.0629
      8 C8        114.6370  130.9998   63.5894 C.ar        1 MOL      -0.0420
      9 N         116.4474  134.2360   61.0595 N.pl3       1 MOL      -0.2710
     10 S         113.7134  133.2282   62.4625 S.o2        1 MOL      -0.1624
     11 C9        114.9676  132.0184   62.6674 C.ar        1 MOL       0.0589
     12 C10       116.1449  131.8882   61.8478 C.ar        1 MOL       0.0329
     13 C11       116.5849  135.0107   62.1722 C.ar        1 MOL       0.0604
     14 C12       116.1205  136.3446   62.1150 C.ar        1 MOL      -0.0391
     15 C13       116.3277  137.2365   63.1871 C.ar        1 MOL      -0.0719
     16 C14       117.0353  136.8090   64.3276 C.ar        1 MOL      -0.0738
     17 C15       117.5151  135.4923   64.3956 C.ar        1 MOL      -0.0719
     18 C16       117.2892  134.6015   63.3268 C.ar        1 MOL      -0.0391
     19 O1        112.1992  132.5557   62.7920 O.co2       1 MOL      -0.4795
     20 O2        113.6882  133.8233   60.8764 O.co2       1 MOL      -0.4795
     21 O3        113.9544  134.4865   63.5595 O.co2       1 MOL      -0.4795
     22 H1        117.9377  133.2337   59.3007 H           1 MOL       0.0480
     23 H2        118.9366  131.0522   59.2914 H           1 MOL       0.0576
     24 H3        118.3358  129.4388   60.9658 H           1 MOL       0.0477
     25 H4        116.9719  128.7422   62.8499 H           1 MOL       0.0595
     26 H5        115.1106  129.0822   64.3265 H           1 MOL       0.0613
     27 H6        113.8164  131.0785   64.1887 H           1 MOL       0.0604
     28 H7        116.5333  134.7365   60.2140 H           1 MOL       0.2117
     29 H8        115.6255  136.6856   61.2850 H           1 MOL       0.0532
     30 H9        115.9880  138.1984   63.1296 H           1 MOL       0.0586
     31 H10       117.2193  137.4626   65.0894 H           1 MOL       0.0516
     32 H11       118.0652  135.1906   65.2043 H           1 MOL       0.0586
     33 H12       117.6967  133.6617   63.3883 H           1 MOL       0.0532
@<TRIPOS>BOND
     1     1     2  ar
     2     1     9   1
     3     1    12  ar
     4     2     3  ar
     5     3     4  ar
     6     4     5  ar
     7     5     6  ar
     8     5    12  ar
     9     6     7  ar
    10     7     8  ar
    11     8    11  ar
    12     9    13   1
    13    11    10   1
    14    10    19  ar
    15    10    20  ar
    16    10    21  ar
    17    11    12  ar
    18    13    14  ar
    19    13    18  ar
    20    14    15  ar
    21    15    16  ar
    22    16    17  ar
    23    17    18  ar
    24     2    22   1
    25     3    23   1
    26     4    24   1
    27     6    25   1
    28     7    26   1
    29     8    27   1
    30     9    28   1
    31    14    29   1
    32    15    30   1
    33    16    31   1
    34    17    32   1
    35    18    33   1
@<TRIPOS>SUBSTRUCTURE
     1  MOL      1

