@<TRIPOS>MOLECULE
3pxf_ligand_073
    33    35
SMALL
GAST_HUCK
****
This file was generated by PARSER (from files_GN.cpp)

@<TRIPOS>ATOM
      1 C1        114.0712  144.3087   69.7022 C.ar        1 MOL       0.0730
      2 C2        113.3513  144.4841   70.9093 C.ar        1 MOL      -0.0412
      3 C3        113.0334  145.7616   71.3747 C.ar        1 MOL      -0.0768
      4 C4        113.4307  146.8871   70.6403 C.ar        1 MOL      -0.0703
      5 C5        114.1774  146.7386   69.4487 C.ar        1 MOL      -0.0263
      6 C6        114.5910  147.9132   68.7861 C.ar        1 MOL      -0.0593
      7 C7        115.3914  147.8182   67.6424 C.ar        1 MOL      -0.0629
      8 C8        115.7966  146.5643   67.1688 C.ar        1 MOL      -0.0420
      9 N         114.2088  143.0328   69.2800 N.pl3       1 MOL      -0.2710
     10 S         116.1703  143.9146   67.1835 S.o2        1 MOL      -0.1624
     11 C9        115.3990  145.3716   67.8059 C.ar        1 MOL       0.0589
     12 C10       114.5319  145.4367   68.9518 C.ar        1 MOL       0.0329
     13 C11       114.9996  142.0610   69.8327 C.ar        1 MOL       0.0604
     14 C12       115.0973  140.8456   69.1298 C.ar        1 MOL      -0.0391
     15 C13       116.1049  139.9121   69.4543 C.ar        1 MOL      -0.0719
     16 C14       117.0261  140.1982   70.4756 C.ar        1 MOL      -0.0738
     17 C15       116.9011  141.3770   71.2250 C.ar        1 MOL      -0.0719
     18 C16       115.8948  142.3069   70.8989 C.ar        1 MOL      -0.0391
     19 O1        116.9794  143.0968   68.4307 O.co2       1 MOL      -0.4795
     20 O2        117.3243  144.2451   65.9796 O.co2       1 MOL      -0.4795
     21 O3        115.0175  142.8598   66.5120 O.co2       1 MOL      -0.4795
     22 H1        113.0029  143.6753   71.4368 H           1 MOL       0.0480
     23 H2        112.4932  145.8660   72.2330 H           1 MOL       0.0576
     24 H3        113.1838  147.8087   70.9967 H           1 MOL       0.0477
     25 H4        114.3401  148.8374   69.1313 H           1 MOL       0.0595
     26 H5        115.7181  148.6723   67.1776 H           1 MOL       0.0613
     27 H6        116.4148  146.5517   66.3627 H           1 MOL       0.0604
     28 H7        113.9259  142.8557   68.3565 H           1 MOL       0.2117
     29 H8        114.4733  140.6463   68.3395 H           1 MOL       0.0532
     30 H9        116.1694  139.0298   68.9308 H           1 MOL       0.0586
     31 H10       117.7755  139.5414   70.6889 H           1 MOL       0.0516
     32 H11       117.5510  141.5765   71.9913 H           1 MOL       0.0586
     33 H12       115.8709  143.1944   71.4161 H           1 MOL       0.0532
@<TRIPOS>BOND
     1     1     2  ar
     2     1     9   1
     3     1    12  ar
     4     2     3  ar
     5     3     4  ar
     6     4     5  ar
     7     5     6  ar
     8     5    12  ar
     9     6     7  ar
    10     7     8  ar
    11     8    11  ar
    12     9    13   1
    13    11    10   1
    14    10    19  ar
    15    10    20  ar
    16    10    21  ar
    17    11    12  ar
    18    13    14  ar
    19    13    18  ar
    20    14    15  ar
    21    15    16  ar
    22    16    17  ar
    23    17    18  ar
    24     2    22   1
    25     3    23   1
    26     4    24   1
    27     6    25   1
    28     7    26   1
    29     8    27   1
    30     9    28   1
    31    14    29   1
    32    15    30   1
    33    16    31   1
    34    17    32   1
    35    18    33   1
@<TRIPOS>SUBSTRUCTURE
     1  MOL      1

