@<TRIPOS>MOLECULE
3pxf_ligand_023
    33    35
SMALL
GAST_HUCK
****
This file was generated by PARSER (from files_GN.cpp)

@<TRIPOS>ATOM
      1 C1        115.4354  132.3543   62.9728 C.ar        1 MOL       0.0730
      2 C2        114.0423  132.1073   63.0491 C.ar        1 MOL      -0.0412
      3 C3        113.1304  133.1531   63.2327 C.ar        1 MOL      -0.0768
      4 C4        113.6103  134.4636   63.3604 C.ar        1 MOL      -0.0703
      5 C5        114.9980  134.7175   63.3958 C.ar        1 MOL      -0.0263
      6 C6        115.4201  136.0542   63.5570 C.ar        1 MOL      -0.0593
      7 C7        116.7831  136.3338   63.6883 C.ar        1 MOL      -0.0629
      8 C8        117.7071  135.2850   63.7467 C.ar        1 MOL      -0.0420
      9 N         116.1170  131.3031   62.4502 N.pl3       1 MOL      -0.2710
     10 S         118.5457  132.8299   64.1593 S.o2        1 MOL      -0.1624
     11 C9        117.2987  133.9400   63.6170 C.ar        1 MOL       0.0589
     12 C10       115.9400  133.6459   63.3062 C.ar        1 MOL       0.0329
     13 C11       117.1119  131.2951   61.5217 C.ar        1 MOL       0.0604
     14 C12       117.8598  130.1075   61.3836 C.ar        1 MOL      -0.0391
     15 C13       118.8036  129.9603   60.3499 C.ar        1 MOL      -0.0719
     16 C14       118.9759  130.9866   59.4077 C.ar        1 MOL      -0.0738
     17 C15       118.2263  132.1695   59.5191 C.ar        1 MOL      -0.0719
     18 C16       117.2888  132.3177   60.5600 C.ar        1 MOL      -0.0391
     19 O1        118.7253  133.0378   65.8398 O.co2       1 MOL      -0.4795
     20 O2        120.0122  133.2661   63.4174 O.co2       1 MOL      -0.4795
     21 O3        118.2437  131.1751   63.8787 O.co2       1 MOL      -0.4795
     22 H1        113.6459  131.1685   62.8606 H           1 MOL       0.0480
     23 H2        112.1150  132.9798   63.2184 H           1 MOL       0.0576
     24 H3        112.9221  135.2320   63.4378 H           1 MOL       0.0477
     25 H4        114.7614  136.8285   63.5883 H           1 MOL       0.0595
     26 H5        117.1029  137.3097   63.8156 H           1 MOL       0.0613
     27 H6        118.6839  135.5348   63.9517 H           1 MOL       0.0604
     28 H7        115.7140  130.4001   62.6216 H           1 MOL       0.2117
     29 H8        117.7390  129.3319   62.0503 H           1 MOL       0.0532
     30 H9        119.3560  129.1015   60.2718 H           1 MOL       0.0586
     31 H10       119.6252  130.8713   58.6320 H           1 MOL       0.0516
     32 H11       118.3291  132.9137   58.8258 H           1 MOL       0.0586
     33 H12       116.7268  133.1736   60.6018 H           1 MOL       0.0532
@<TRIPOS>BOND
     1     1     2  ar
     2     1     9   1
     3     1    12  ar
     4     2     3  ar
     5     3     4  ar
     6     4     5  ar
     7     5     6  ar
     8     5    12  ar
     9     6     7  ar
    10     7     8  ar
    11     8    11  ar
    12     9    13   1
    13    11    10   1
    14    10    19  ar
    15    10    20  ar
    16    10    21  ar
    17    11    12  ar
    18    13    14  ar
    19    13    18  ar
    20    14    15  ar
    21    15    16  ar
    22    16    17  ar
    23    17    18  ar
    24     2    22   1
    25     3    23   1
    26     4    24   1
    27     6    25   1
    28     7    26   1
    29     8    27   1
    30     9    28   1
    31    14    29   1
    32    15    30   1
    33    16    31   1
    34    17    32   1
    35    18    33   1
@<TRIPOS>SUBSTRUCTURE
     1  MOL      1

