@<TRIPOS>MOLECULE
3pxf_ligand_083
    33    35
SMALL
GAST_HUCK
****
This file was generated by PARSER (from files_GN.cpp)

@<TRIPOS>ATOM
      1 C1        115.4374  143.1523   68.9391 C.ar        1 MOL       0.0730
      2 C2        114.5059  142.7213   69.9154 C.ar        1 MOL      -0.0412
      3 C3        113.2990  143.3938   70.1089 C.ar        1 MOL      -0.0768
      4 C4        113.0097  144.5325   69.3520 C.ar        1 MOL      -0.0703
      5 C5        113.9488  145.0267   68.4185 C.ar        1 MOL      -0.0263
      6 C6        113.6086  146.1956   67.7040 C.ar        1 MOL      -0.0593
      7 C7        114.5073  146.7562   66.7943 C.ar        1 MOL      -0.0629
      8 C8        115.7702  146.1756   66.6286 C.ar        1 MOL      -0.0420
      9 N         116.4815  142.3018   68.7530 N.pl3       1 MOL      -0.2710
     10 S         117.8712  144.6033   67.1896 S.o2        1 MOL      -0.1624
     11 C9        116.1652  145.0143   67.3458 C.ar        1 MOL       0.0589
     12 C10       115.2103  144.3644   68.2049 C.ar        1 MOL       0.0329
     13 C11       116.5683  141.4178   67.7035 C.ar        1 MOL       0.0604
     14 C12       117.4082  140.2926   67.8887 C.ar        1 MOL      -0.0391
     15 C13       117.4886  139.2781   66.9144 C.ar        1 MOL      -0.0719
     16 C14       116.7068  139.3657   65.7472 C.ar        1 MOL      -0.0738
     17 C15       115.8740  140.4790   65.5428 C.ar        1 MOL      -0.0719
     18 C16       115.8075  141.5020   66.5112 C.ar        1 MOL      -0.0391
     19 O1        118.5222  144.2037   68.7027 O.co2       1 MOL      -0.4795
     20 O2        118.7625  145.9074   66.5821 O.co2       1 MOL      -0.4795
     21 O3        118.0206  143.3064   66.1155 O.co2       1 MOL      -0.4795
     22 H1        114.6745  141.8544   70.4445 H           1 MOL       0.0480
     23 H2        112.6128  143.0343   70.7833 H           1 MOL       0.0576
     24 H3        112.1066  144.9942   69.4926 H           1 MOL       0.0477
     25 H4        112.7004  146.6555   67.8389 H           1 MOL       0.0595
     26 H5        114.2618  147.6104   66.2880 H           1 MOL       0.0613
     27 H6        116.4215  146.6480   65.9909 H           1 MOL       0.0604
     28 H7        116.7936  141.8942   69.5869 H           1 MOL       0.2117
     29 H8        117.9704  140.2055   68.7408 H           1 MOL       0.0532
     30 H9        118.0926  138.4659   67.0736 H           1 MOL       0.0586
     31 H10       116.7436  138.6150   65.0554 H           1 MOL       0.0516
     32 H11       115.3045  140.5404   64.6944 H           1 MOL       0.0586
     33 H12       115.1839  142.2973   66.3421 H           1 MOL       0.0532
@<TRIPOS>BOND
     1     1     2  ar
     2     1     9   1
     3     1    12  ar
     4     2     3  ar
     5     3     4  ar
     6     4     5  ar
     7     5     6  ar
     8     5    12  ar
     9     6     7  ar
    10     7     8  ar
    11     8    11  ar
    12     9    13   1
    13    11    10   1
    14    10    19  ar
    15    10    20  ar
    16    10    21  ar
    17    11    12  ar
    18    13    14  ar
    19    13    18  ar
    20    14    15  ar
    21    15    16  ar
    22    16    17  ar
    23    17    18  ar
    24     2    22   1
    25     3    23   1
    26     4    24   1
    27     6    25   1
    28     7    26   1
    29     8    27   1
    30     9    28   1
    31    14    29   1
    32    15    30   1
    33    16    31   1
    34    17    32   1
    35    18    33   1
@<TRIPOS>SUBSTRUCTURE
     1  MOL      1

