@<TRIPOS>MOLECULE
3pxf_ligand_018
    33    35
SMALL
GAST_HUCK
****
This file was generated by PARSER (from files_GN.cpp)

@<TRIPOS>ATOM
      1 C1        114.5078  135.2672   63.1479 C.ar        1 MOL       0.0730
      2 C2        115.5133  135.5415   64.1030 C.ar        1 MOL      -0.0412
      3 C3        115.8998  136.8581   64.3788 C.ar        1 MOL      -0.0768
      4 C4        115.2726  137.9194   63.7158 C.ar        1 MOL      -0.0703
      5 C5        114.1894  137.6753   62.8447 C.ar        1 MOL      -0.0263
      6 C6        113.5676  138.7814   62.2261 C.ar        1 MOL      -0.0593
      7 C7        112.4513  138.5945   61.4057 C.ar        1 MOL      -0.0629
      8 C8        111.9124  137.3117   61.2494 C.ar        1 MOL      -0.0420
      9 N         114.5359  133.9807   62.7066 N.pl3       1 MOL      -0.2710
     10 S         111.4457  134.7754   61.8856 S.o2        1 MOL      -0.1624
     11 C9        112.4931  136.1872   61.8838 C.ar        1 MOL       0.0589
     12 C10       113.7233  136.3396   62.6067 C.ar        1 MOL       0.0329
     13 C11       114.5774  133.5742   61.4049 C.ar        1 MOL       0.0604
     14 C12       113.8332  132.4348   61.0288 C.ar        1 MOL      -0.0391
     15 C13       113.8599  131.9744   59.6996 C.ar        1 MOL      -0.0719
     16 C14       114.6818  132.6102   58.7526 C.ar        1 MOL      -0.0738
     17 C15       115.4697  133.7093   59.1258 C.ar        1 MOL      -0.0719
     18 C16       115.4213  134.1865   60.4463 C.ar        1 MOL      -0.0391
     19 O1        111.3779  134.1216   60.3281 O.co2       1 MOL      -0.4795
     20 O2        109.8724  135.2492   62.2891 O.co2       1 MOL      -0.4795
     21 O3        111.9187  133.5878   62.9935 O.co2       1 MOL      -0.4795
     22 H1        116.0616  134.7853   64.5230 H           1 MOL       0.0480
     23 H2        116.6717  137.0424   65.0244 H           1 MOL       0.0576
     24 H3        115.5938  138.8727   63.9025 H           1 MOL       0.0477
     25 H4        113.9184  139.7333   62.3663 H           1 MOL       0.0595
     26 H5        112.0076  139.3981   60.9547 H           1 MOL       0.0613
     27 H6        111.0568  137.2218   60.6931 H           1 MOL       0.0604
     28 H7        114.8366  133.3107   63.3430 H           1 MOL       0.2117
     29 H8        113.2408  131.9549   61.7111 H           1 MOL       0.0532
     30 H9        113.2890  131.1729   59.4230 H           1 MOL       0.0586
     31 H10       114.7253  132.2641   57.7965 H           1 MOL       0.0516
     32 H11       116.0803  134.1575   58.4392 H           1 MOL       0.0586
     33 H12       116.0250  134.9679   60.7098 H           1 MOL       0.0532
@<TRIPOS>BOND
     1     1     2  ar
     2     1     9   1
     3     1    12  ar
     4     2     3  ar
     5     3     4  ar
     6     4     5  ar
     7     5     6  ar
     8     5    12  ar
     9     6     7  ar
    10     7     8  ar
    11     8    11  ar
    12     9    13   1
    13    11    10   1
    14    10    19  ar
    15    10    20  ar
    16    10    21  ar
    17    11    12  ar
    18    13    14  ar
    19    13    18  ar
    20    14    15  ar
    21    15    16  ar
    22    16    17  ar
    23    17    18  ar
    24     2    22   1
    25     3    23   1
    26     4    24   1
    27     6    25   1
    28     7    26   1
    29     8    27   1
    30     9    28   1
    31    14    29   1
    32    15    30   1
    33    16    31   1
    34    17    32   1
    35    18    33   1
@<TRIPOS>SUBSTRUCTURE
     1  MOL      1

