@<TRIPOS>MOLECULE
3pxf_ligand_014
    33    35
SMALL
GAST_HUCK
****
This file was generated by PARSER (from files_GN.cpp)

@<TRIPOS>ATOM
      1 C1        115.6882  132.1141   61.7496 C.ar        1 MOL       0.0730
      2 C2        114.4523  132.1456   62.4297 C.ar        1 MOL      -0.0412
      3 C3        114.0805  131.1152   63.3016 C.ar        1 MOL      -0.0768
      4 C4        114.9755  130.0744   63.5647 C.ar        1 MOL      -0.0703
      5 C5        116.2131  130.0150   62.8891 C.ar        1 MOL      -0.0263
      6 C6        117.0960  128.9626   63.2205 C.ar        1 MOL      -0.0593
      7 C7        118.3332  128.8570   62.5849 C.ar        1 MOL      -0.0629
      8 C8        118.6650  129.7491   61.5603 C.ar        1 MOL      -0.0420
      9 N         115.9728  133.2165   61.0190 N.pl3       1 MOL      -0.2710
     10 S         118.2627  131.6238   59.6981 S.o2        1 MOL      -0.1624
     11 C9        117.7867  130.7895   61.1684 C.ar        1 MOL       0.0589
     12 C10       116.5711  130.9966   61.9006 C.ar        1 MOL       0.0329
     13 C11       116.4986  134.3947   61.4953 C.ar        1 MOL       0.0604
     14 C12       116.7832  134.6607   62.8615 C.ar        1 MOL      -0.0391
     15 C13       117.3356  135.8952   63.2558 C.ar        1 MOL      -0.0719
     16 C14       117.6141  136.8842   62.2957 C.ar        1 MOL      -0.0738
     17 C15       117.3677  136.6289   60.9365 C.ar        1 MOL      -0.0719
     18 C16       116.8134  135.3945   60.5468 C.ar        1 MOL      -0.0391
     19 O1        119.5093  130.8132   58.8931 O.co2       1 MOL      -0.4795
     20 O2        118.8303  133.1750   60.0523 O.co2       1 MOL      -0.4795
     21 O3        116.9395  131.7121   58.6490 O.co2       1 MOL      -0.4795
     22 H1        113.7982  132.9173   62.2701 H           1 MOL       0.0480
     23 H2        113.1647  131.1344   63.7575 H           1 MOL       0.0576
     24 H3        114.7069  129.3542   64.2464 H           1 MOL       0.0477
     25 H4        116.8560  128.2688   63.9353 H           1 MOL       0.0595
     26 H5        118.9786  128.1055   62.8387 H           1 MOL       0.0613
     27 H6        119.5607  129.6022   61.0861 H           1 MOL       0.0604
     28 H7        115.9703  133.1054   60.0571 H           1 MOL       0.2117
     29 H8        116.6110  133.9534   63.5787 H           1 MOL       0.0532
     30 H9        117.5237  136.0853   64.2425 H           1 MOL       0.0586
     31 H10       117.9963  137.7870   62.5785 H           1 MOL       0.0516
     32 H11       117.5695  137.3416   60.2371 H           1 MOL       0.0586
     33 H12       116.6556  135.2201   59.5506 H           1 MOL       0.0532
@<TRIPOS>BOND
     1     1     2  ar
     2     1     9   1
     3     1    12  ar
     4     2     3  ar
     5     3     4  ar
     6     4     5  ar
     7     5     6  ar
     8     5    12  ar
     9     6     7  ar
    10     7     8  ar
    11     8    11  ar
    12     9    13   1
    13    11    10   1
    14    10    19  ar
    15    10    20  ar
    16    10    21  ar
    17    11    12  ar
    18    13    14  ar
    19    13    18  ar
    20    14    15  ar
    21    15    16  ar
    22    16    17  ar
    23    17    18  ar
    24     2    22   1
    25     3    23   1
    26     4    24   1
    27     6    25   1
    28     7    26   1
    29     8    27   1
    30     9    28   1
    31    14    29   1
    32    15    30   1
    33    16    31   1
    34    17    32   1
    35    18    33   1
@<TRIPOS>SUBSTRUCTURE
     1  MOL      1

