@<TRIPOS>MOLECULE
3pxf_ligand_044
    33    35
SMALL
GAST_HUCK
****
This file was generated by PARSER (from files_GN.cpp)

@<TRIPOS>ATOM
      1 C1        117.3103  133.5886   62.8014 C.ar        1 MOL       0.0730
      2 C2        118.1426  133.9159   63.9021 C.ar        1 MOL      -0.0412
      3 C3        119.5113  133.6292   63.8895 C.ar        1 MOL      -0.0768
      4 C4        120.0710  132.9884   62.7887 C.ar        1 MOL      -0.0703
      5 C5        119.2706  132.6439   61.6763 C.ar        1 MOL      -0.0263
      6 C6        119.9073  131.9867   60.6008 C.ar        1 MOL      -0.0593
      7 C7        119.1789  131.6373   59.4638 C.ar        1 MOL      -0.0629
      8 C8        117.8221  131.9695   59.3810 C.ar        1 MOL      -0.0420
      9 N         115.9803  133.8499   62.9263 N.pl3       1 MOL      -0.2710
     10 S         115.4960  133.1172   60.0168 S.o2        1 MOL      -0.1624
     11 C9        117.1424  132.6503   60.4175 C.ar        1 MOL       0.0589
     12 C10       117.8571  132.9480   61.6347 C.ar        1 MOL       0.0329
     13 C11       115.3028  135.0413   62.9877 C.ar        1 MOL       0.0604
     14 C12       115.8300  136.2690   62.5260 C.ar        1 MOL      -0.0391
     15 C13       115.0151  137.4096   62.3943 C.ar        1 MOL      -0.0719
     16 C14       113.6463  137.3348   62.7218 C.ar        1 MOL      -0.0738
     17 C15       113.0996  136.1191   63.1567 C.ar        1 MOL      -0.0719
     18 C16       113.9209  134.9775   63.2923 C.ar        1 MOL      -0.0391
     19 O1        114.4178  132.2184   60.9633 O.co2       1 MOL      -0.4795
     20 O2        115.0810  132.8299   58.3954 O.co2       1 MOL      -0.4795
     21 O3        115.2942  134.7648   60.3319 O.co2       1 MOL      -0.4795
     22 H1        117.7486  134.3120   64.7586 H           1 MOL       0.0480
     23 H2        120.0844  133.8592   64.7028 H           1 MOL       0.0576
     24 H3        121.0769  132.7872   62.7988 H           1 MOL       0.0477
     25 H4        120.9066  131.7645   60.6348 H           1 MOL       0.0595
     26 H5        119.6486  131.1674   58.6825 H           1 MOL       0.0613
     27 H6        117.3441  131.7178   58.5149 H           1 MOL       0.0604
     28 H7        115.4083  133.0758   62.8257 H           1 MOL       0.2117
     29 H8        116.7920  136.3282   62.2020 H           1 MOL       0.0532
     30 H9        115.4055  138.2802   62.0421 H           1 MOL       0.0586
     31 H10       113.0495  138.1594   62.6098 H           1 MOL       0.0516
     32 H11       112.1023  136.0533   63.3516 H           1 MOL       0.0586
     33 H12       113.4982  134.0991   63.6112 H           1 MOL       0.0532
@<TRIPOS>BOND
     1     1     2  ar
     2     1     9   1
     3     1    12  ar
     4     2     3  ar
     5     3     4  ar
     6     4     5  ar
     7     5     6  ar
     8     5    12  ar
     9     6     7  ar
    10     7     8  ar
    11     8    11  ar
    12     9    13   1
    13    11    10   1
    14    10    19  ar
    15    10    20  ar
    16    10    21  ar
    17    11    12  ar
    18    13    14  ar
    19    13    18  ar
    20    14    15  ar
    21    15    16  ar
    22    16    17  ar
    23    17    18  ar
    24     2    22   1
    25     3    23   1
    26     4    24   1
    27     6    25   1
    28     7    26   1
    29     8    27   1
    30     9    28   1
    31    14    29   1
    32    15    30   1
    33    16    31   1
    34    17    32   1
    35    18    33   1
@<TRIPOS>SUBSTRUCTURE
     1  MOL      1

