@<TRIPOS>MOLECULE
3pxf_ligand_062
    33    35
SMALL
GAST_HUCK
****
This file was generated by PARSER (from files_GN.cpp)

@<TRIPOS>ATOM
      1 C1        123.7258  139.6374   67.2552 C.ar        1 MOL       0.0730
      2 C2        124.0544  140.9757   66.9163 C.ar        1 MOL      -0.0412
      3 C3        123.6231  142.0462   67.6996 C.ar        1 MOL      -0.0768
      4 C4        122.8576  141.8001   68.8453 C.ar        1 MOL      -0.0703
      5 C5        122.4576  140.4841   69.1745 C.ar        1 MOL      -0.0263
      6 C6        121.6317  140.2977   70.3073 C.ar        1 MOL      -0.0593
      7 C7        121.1418  139.0269   70.6157 C.ar        1 MOL      -0.0629
      8 C8        121.4200  137.9457   69.7776 C.ar        1 MOL      -0.0420
      9 N         124.3374  138.6248   66.5848 N.pl3       1 MOL      -0.2710
     10 S         122.2848  136.6979   67.5537 S.o2        1 MOL      -0.1624
     11 C9        122.2403  138.0935   68.6318 C.ar        1 MOL       0.0589
     12 C10       122.8456  139.3726   68.3541 C.ar        1 MOL       0.0329
     13 C11       124.4208  138.4017   65.2449 C.ar        1 MOL       0.0604
     14 C12       125.5586  137.7460   64.7299 C.ar        1 MOL      -0.0391
     15 C13       125.5855  137.3050   63.3948 C.ar        1 MOL      -0.0719
     16 C14       124.4566  137.4846   62.5701 C.ar        1 MOL      -0.0738
     17 C15       123.3221  138.1439   63.0679 C.ar        1 MOL      -0.0719
     18 C16       123.2958  138.5892   64.4058 C.ar        1 MOL      -0.0391
     19 O1        121.5758  137.1082   66.0681 O.co2       1 MOL      -0.4795
     20 O2        121.4771  135.3459   68.1833 O.co2       1 MOL      -0.4795
     21 O3        123.8975  136.2328   67.3078 O.co2       1 MOL      -0.4795
     22 H1        124.6638  141.1751   66.1187 H           1 MOL       0.0480
     23 H2        123.8941  143.0022   67.4532 H           1 MOL       0.0576
     24 H3        122.5800  142.6010   69.4255 H           1 MOL       0.0477
     25 H4        121.3700  141.0869   70.9044 H           1 MOL       0.0595
     26 H5        120.5401  138.8993   71.4309 H           1 MOL       0.0613
     27 H6        120.9904  137.0518   70.0023 H           1 MOL       0.0604
     28 H7        124.6358  137.8981   67.1267 H           1 MOL       0.2117
     29 H8        126.3594  137.5498   65.3325 H           1 MOL       0.0532
     30 H9        126.4078  136.8227   63.0345 H           1 MOL       0.0586
     31 H10       124.4513  137.1176   61.6165 H           1 MOL       0.0516
     32 H11       122.4968  138.2549   62.4770 H           1 MOL       0.0586
     33 H12       122.4294  138.9766   64.7778 H           1 MOL       0.0532
@<TRIPOS>BOND
     1     1     2  ar
     2     1     9   1
     3     1    12  ar
     4     2     3  ar
     5     3     4  ar
     6     4     5  ar
     7     5     6  ar
     8     5    12  ar
     9     6     7  ar
    10     7     8  ar
    11     8    11  ar
    12     9    13   1
    13    11    10   1
    14    10    19  ar
    15    10    20  ar
    16    10    21  ar
    17    11    12  ar
    18    13    14  ar
    19    13    18  ar
    20    14    15  ar
    21    15    16  ar
    22    16    17  ar
    23    17    18  ar
    24     2    22   1
    25     3    23   1
    26     4    24   1
    27     6    25   1
    28     7    26   1
    29     8    27   1
    30     9    28   1
    31    14    29   1
    32    15    30   1
    33    16    31   1
    34    17    32   1
    35    18    33   1
@<TRIPOS>SUBSTRUCTURE
     1  MOL      1

