@<TRIPOS>MOLECULE
3pxf_ligand_032
    33    35
SMALL
GAST_HUCK
****
This file was generated by PARSER (from files_GN.cpp)

@<TRIPOS>ATOM
      1 C1        117.4822  133.0599   62.5754 C.ar        1 MOL       0.0730
      2 C2        116.8144  134.2034   63.0792 C.ar        1 MOL      -0.0412
      3 C3        117.4955  135.1831   63.8084 C.ar        1 MOL      -0.0768
      4 C4        118.8671  135.0472   64.0323 C.ar        1 MOL      -0.0703
      5 C5        119.5443  133.8819   63.6108 C.ar        1 MOL      -0.0263
      6 C6        120.9260  133.7936   63.8841 C.ar        1 MOL      -0.0593
      7 C7        121.6413  132.6452   63.5380 C.ar        1 MOL      -0.0629
      8 C8        120.9730  131.5605   62.9618 C.ar        1 MOL      -0.0420
      9 N         116.8466  132.2804   61.6524 N.pl3       1 MOL      -0.2710
     10 S         118.8857  130.0555   62.2480 S.o2        1 MOL      -0.1624
     11 C9        119.5836  131.6074   62.6952 C.ar        1 MOL       0.0589
     12 C10       118.8504  132.8198   62.9375 C.ar        1 MOL       0.0329
     13 C11       115.5096  132.1392   61.4492 C.ar        1 MOL       0.0604
     14 C12       114.6981  131.5414   62.4371 C.ar        1 MOL      -0.0391
     15 C13       113.3161  131.4010   62.2232 C.ar        1 MOL      -0.0719
     16 C14       112.7345  131.8570   61.0256 C.ar        1 MOL      -0.0738
     17 C15       113.5409  132.4500   60.0340 C.ar        1 MOL      -0.0719
     18 C16       114.9263  132.5871   60.2431 C.ar        1 MOL      -0.0391
     19 O1        118.8297  129.9247   60.5619 O.co2       1 MOL      -0.4795
     20 O2        117.3212  129.9165   62.8775 O.co2       1 MOL      -0.4795
     21 O3        119.8011  128.7627   62.8388 O.co2       1 MOL      -0.4795
     22 H1        115.8306  134.3815   62.8674 H           1 MOL       0.0480
     23 H2        117.0031  136.0216   64.1314 H           1 MOL       0.0576
     24 H3        119.3591  135.8014   64.5220 H           1 MOL       0.0477
     25 H4        121.4277  134.5626   64.3412 H           1 MOL       0.0595
     26 H5        122.6434  132.5843   63.7385 H           1 MOL       0.0613
     27 H6        121.5241  130.7186   62.7701 H           1 MOL       0.0604
     28 H7        117.4028  131.8429   60.9944 H           1 MOL       0.2117
     29 H8        115.1125  131.2006   63.3093 H           1 MOL       0.0532
     30 H9        112.7346  130.9567   62.9354 H           1 MOL       0.0586
     31 H10       111.7284  131.7527   60.8696 H           1 MOL       0.0516
     32 H11       113.1204  132.7788   59.1636 H           1 MOL       0.0586
     33 H12       115.5061  133.0219   59.5220 H           1 MOL       0.0532
@<TRIPOS>BOND
     1     1     2  ar
     2     1     9   1
     3     1    12  ar
     4     2     3  ar
     5     3     4  ar
     6     4     5  ar
     7     5     6  ar
     8     5    12  ar
     9     6     7  ar
    10     7     8  ar
    11     8    11  ar
    12     9    13   1
    13    11    10   1
    14    10    19  ar
    15    10    20  ar
    16    10    21  ar
    17    11    12  ar
    18    13    14  ar
    19    13    18  ar
    20    14    15  ar
    21    15    16  ar
    22    16    17  ar
    23    17    18  ar
    24     2    22   1
    25     3    23   1
    26     4    24   1
    27     6    25   1
    28     7    26   1
    29     8    27   1
    30     9    28   1
    31    14    29   1
    32    15    30   1
    33    16    31   1
    34    17    32   1
    35    18    33   1
@<TRIPOS>SUBSTRUCTURE
     1  MOL      1

