@<TRIPOS>MOLECULE
3pxf_ligand_069
    33    35
SMALL
GAST_HUCK
****
This file was generated by PARSER (from files_GN.cpp)

@<TRIPOS>ATOM
      1 C1        126.8147  132.0534   65.9588 C.ar        1 MOL       0.0730
      2 C2        125.8005  132.3483   66.9063 C.ar        1 MOL      -0.0412
      3 C3        125.2880  133.6433   67.0434 C.ar        1 MOL      -0.0768
      4 C4        125.7647  134.6712   66.2183 C.ar        1 MOL      -0.0703
      5 C5        126.8072  134.4134   65.2944 C.ar        1 MOL      -0.0263
      6 C6        127.2601  135.4859   64.4881 C.ar        1 MOL      -0.0593
      7 C7        128.3192  135.2971   63.5979 C.ar        1 MOL      -0.0629
      8 C8        128.9845  134.0641   63.5560 C.ar        1 MOL      -0.0420
      9 N         127.1099  130.7573   65.6942 N.pl3       1 MOL      -0.2710
     10 S         129.7055  131.6284   64.4143 S.o2        1 MOL      -0.1624
     11 C9        128.5789  132.9796   64.3759 C.ar        1 MOL       0.0589
     12 C10       127.4057  133.1141   65.1964 C.ar        1 MOL       0.0329
     13 C11       127.4924  129.7548   66.5360 C.ar        1 MOL       0.0604
     14 C12       127.2714  128.4187   66.1336 C.ar        1 MOL      -0.0391
     15 C13       127.7700  127.3453   66.9015 C.ar        1 MOL      -0.0719
     16 C14       128.5045  127.5993   68.0758 C.ar        1 MOL      -0.0738
     17 C15       128.7604  128.9287   68.4707 C.ar        1 MOL      -0.0719
     18 C16       128.2618  129.9988   67.6986 C.ar        1 MOL      -0.0391
     19 O1        130.2344  131.3700   65.9997 O.co2       1 MOL      -0.4795
     20 O2        131.0676  131.9154   63.4494 O.co2       1 MOL      -0.4795
     21 O3        128.9371  130.2406   63.8212 O.co2       1 MOL      -0.4795
     22 H1        125.3670  131.5995   67.4558 H           1 MOL       0.0480
     23 H2        124.5324  133.8288   67.7071 H           1 MOL       0.0576
     24 H3        125.3563  135.6045   66.3175 H           1 MOL       0.0477
     25 H4        126.7970  136.3968   64.5188 H           1 MOL       0.0595
     26 H5        128.6362  136.0691   63.0078 H           1 MOL       0.0613
     27 H6        129.7847  133.9829   62.9290 H           1 MOL       0.0604
     28 H7        127.0751  130.5125   64.7617 H           1 MOL       0.2117
     29 H8        126.7667  128.2180   65.2720 H           1 MOL       0.0532
     30 H9        127.5955  126.3818   66.6093 H           1 MOL       0.0586
     31 H10       128.8716  126.8198   68.6306 H           1 MOL       0.0516
     32 H11       129.3178  129.1112   69.3064 H           1 MOL       0.0586
     33 H12       128.4987  130.9561   67.9778 H           1 MOL       0.0532
@<TRIPOS>BOND
     1     1     2  ar
     2     1     9   1
     3     1    12  ar
     4     2     3  ar
     5     3     4  ar
     6     4     5  ar
     7     5     6  ar
     8     5    12  ar
     9     6     7  ar
    10     7     8  ar
    11     8    11  ar
    12     9    13   1
    13    11    10   1
    14    10    19  ar
    15    10    20  ar
    16    10    21  ar
    17    11    12  ar
    18    13    14  ar
    19    13    18  ar
    20    14    15  ar
    21    15    16  ar
    22    16    17  ar
    23    17    18  ar
    24     2    22   1
    25     3    23   1
    26     4    24   1
    27     6    25   1
    28     7    26   1
    29     8    27   1
    30     9    28   1
    31    14    29   1
    32    15    30   1
    33    16    31   1
    34    17    32   1
    35    18    33   1
@<TRIPOS>SUBSTRUCTURE
     1  MOL      1

