@<TRIPOS>MOLECULE
3pxf_ligand_033
    33    35
SMALL
GAST_HUCK
****
This file was generated by PARSER (from files_GN.cpp)

@<TRIPOS>ATOM
      1 C1        116.3789  135.0427   62.2451 C.ar        1 MOL       0.0730
      2 C2        116.9528  136.3251   62.0685 C.ar        1 MOL      -0.0412
      3 C3        116.1626  137.4717   61.9594 C.ar        1 MOL      -0.0768
      4 C4        114.7750  137.3656   62.0791 C.ar        1 MOL      -0.0703
      5 C5        114.1735  136.1031   62.2693 C.ar        1 MOL      -0.0263
      6 C6        112.7773  136.0932   62.4614 C.ar        1 MOL      -0.0593
      7 C7        112.1120  134.8934   62.7000 C.ar        1 MOL      -0.0629
      8 C8        112.8334  133.6911   62.7030 C.ar        1 MOL      -0.0420
      9 N         117.2445  133.9971   62.3633 N.pl3       1 MOL      -0.2710
     10 S         114.9008  132.0291   62.3938 S.o2        1 MOL      -0.1624
     11 C9        114.2383  133.6580   62.4904 C.ar        1 MOL       0.0589
     12 C10       114.9509  134.8916   62.3099 C.ar        1 MOL       0.0329
     13 C11       118.3044  134.0030   63.2291 C.ar        1 MOL       0.0604
     14 C12       118.1204  134.3371   64.5926 C.ar        1 MOL      -0.0391
     15 C13       119.2099  134.3023   65.4881 C.ar        1 MOL      -0.0719
     16 C14       120.4844  133.9329   65.0181 C.ar        1 MOL      -0.0738
     17 C15       120.6650  133.5756   63.6711 C.ar        1 MOL      -0.0719
     18 C16       119.5728  133.5931   62.7817 C.ar        1 MOL      -0.0391
     19 O1        115.2979  131.6691   60.7857 O.co2       1 MOL      -0.4795
     20 O2        113.7751  130.8817   62.9135 O.co2       1 MOL      -0.4795
     21 O3        116.2832  131.9151   63.3603 O.co2       1 MOL      -0.4795
     22 H1        117.9681  136.4341   61.9789 H           1 MOL       0.0480
     23 H2        116.5878  138.3896   61.8297 H           1 MOL       0.0576
     24 H3        114.2123  138.2192   62.0201 H           1 MOL       0.0477
     25 H4        112.2348  136.9611   62.4364 H           1 MOL       0.0595
     26 H5        111.0997  134.8916   62.8413 H           1 MOL       0.0613
     27 H6        112.2816  132.8475   62.8402 H           1 MOL       0.0604
     28 H7        116.9492  133.1182   62.0825 H           1 MOL       0.2117
     29 H8        117.1997  134.6184   64.9440 H           1 MOL       0.0532
     30 H9        119.0785  134.5493   66.4748 H           1 MOL       0.0586
     31 H10       121.2777  133.8951   65.6702 H           1 MOL       0.0516
     32 H11       121.5956  133.3058   63.3328 H           1 MOL       0.0586
     33 H12       119.7174  133.3561   61.7971 H           1 MOL       0.0532
@<TRIPOS>BOND
     1     1     2  ar
     2     1     9   1
     3     1    12  ar
     4     2     3  ar
     5     3     4  ar
     6     4     5  ar
     7     5     6  ar
     8     5    12  ar
     9     6     7  ar
    10     7     8  ar
    11     8    11  ar
    12     9    13   1
    13    11    10   1
    14    10    19  ar
    15    10    20  ar
    16    10    21  ar
    17    11    12  ar
    18    13    14  ar
    19    13    18  ar
    20    14    15  ar
    21    15    16  ar
    22    16    17  ar
    23    17    18  ar
    24     2    22   1
    25     3    23   1
    26     4    24   1
    27     6    25   1
    28     7    26   1
    29     8    27   1
    30     9    28   1
    31    14    29   1
    32    15    30   1
    33    16    31   1
    34    17    32   1
    35    18    33   1
@<TRIPOS>SUBSTRUCTURE
     1  MOL      1

