@<TRIPOS>MOLECULE
3pxf_ligand_027
    33    35
SMALL
GAST_HUCK
****
This file was generated by PARSER (from files_GN.cpp)

@<TRIPOS>ATOM
      1 C1        115.1405  134.3979   61.3439 C.ar        1 MOL       0.0730
      2 C2        116.3812  135.0233   61.0966 C.ar        1 MOL      -0.0412
      3 C3        117.5849  134.3946   61.4441 C.ar        1 MOL      -0.0768
      4 C4        117.5505  133.1594   62.0991 C.ar        1 MOL      -0.0703
      5 C5        116.3183  132.5164   62.3465 C.ar        1 MOL      -0.0263
      6 C6        116.3452  131.3070   63.0738 C.ar        1 MOL      -0.0593
      7 C7        115.1526  130.6501   63.3875 C.ar        1 MOL      -0.0629
      8 C8        113.9350  131.1536   62.9154 C.ar        1 MOL      -0.0420
      9 N         114.0559  135.1677   61.1004 N.pl3       1 MOL      -0.2710
     10 S         112.2806  132.6870   61.4815 S.o2        1 MOL      -0.1624
     11 C9        113.8736  132.3383   62.1423 C.ar        1 MOL       0.0589
     12 C10       115.0774  133.0851   61.9066 C.ar        1 MOL       0.0329
     13 C11       113.5016  136.0480   61.9877 C.ar        1 MOL       0.0604
     14 C12       113.7459  136.0060   63.3820 C.ar        1 MOL      -0.0391
     15 C13       113.0458  136.8576   64.2553 C.ar        1 MOL      -0.0719
     16 C14       112.0827  137.7535   63.7491 C.ar        1 MOL      -0.0738
     17 C15       111.8381  137.8108   62.3674 C.ar        1 MOL      -0.0719
     18 C16       112.5410  136.9558   61.4934 C.ar        1 MOL      -0.0391
     19 O1        111.3216  131.2937   61.3877 O.co2       1 MOL      -0.4795
     20 O2        112.4292  133.3151   59.9221 O.co2       1 MOL      -0.4795
     21 O3        111.4599  133.7936   62.4630 O.co2       1 MOL      -0.4795
     22 H1        116.4253  135.9427   60.6480 H           1 MOL       0.0480
     23 H2        118.4806  134.8567   61.2545 H           1 MOL       0.0576
     24 H3        118.4393  132.7510   62.4091 H           1 MOL       0.0477
     25 H4        117.2290  130.9211   63.4246 H           1 MOL       0.0595
     26 H5        115.1750  129.7931   63.9493 H           1 MOL       0.0613
     27 H6        113.0907  130.6221   63.1490 H           1 MOL       0.0604
     28 H7        113.4954  134.9247   60.3490 H           1 MOL       0.2117
     29 H8        114.4040  135.3315   63.7776 H           1 MOL       0.0532
     30 H9        113.2168  136.8032   65.2584 H           1 MOL       0.0586
     31 H10       111.5647  138.3636   64.3839 H           1 MOL       0.0516
     32 H11       111.1362  138.4545   61.9973 H           1 MOL       0.0586
     33 H12       112.3427  137.0020   60.4920 H           1 MOL       0.0532
@<TRIPOS>BOND
     1     1     2  ar
     2     1     9   1
     3     1    12  ar
     4     2     3  ar
     5     3     4  ar
     6     4     5  ar
     7     5     6  ar
     8     5    12  ar
     9     6     7  ar
    10     7     8  ar
    11     8    11  ar
    12     9    13   1
    13    11    10   1
    14    10    19  ar
    15    10    20  ar
    16    10    21  ar
    17    11    12  ar
    18    13    14  ar
    19    13    18  ar
    20    14    15  ar
    21    15    16  ar
    22    16    17  ar
    23    17    18  ar
    24     2    22   1
    25     3    23   1
    26     4    24   1
    27     6    25   1
    28     7    26   1
    29     8    27   1
    30     9    28   1
    31    14    29   1
    32    15    30   1
    33    16    31   1
    34    17    32   1
    35    18    33   1
@<TRIPOS>SUBSTRUCTURE
     1  MOL      1

