@<TRIPOS>MOLECULE
3pxf_ligand_074
    33    35
SMALL
GAST_HUCK
****
This file was generated by PARSER (from files_GN.cpp)

@<TRIPOS>ATOM
      1 C1        121.4655  138.3183   69.6050 C.ar        1 MOL       0.0730
      2 C2        120.1911  138.8701   69.3246 C.ar        1 MOL      -0.0412
      3 C3        119.3493  139.3191   70.3556 C.ar        1 MOL      -0.0768
      4 C4        119.7800  139.2476   71.6842 C.ar        1 MOL      -0.0703
      5 C5        121.1002  138.8477   71.9747 C.ar        1 MOL      -0.0263
      6 C6        121.5099  138.8245   73.3264 C.ar        1 MOL      -0.0593
      7 C7        122.8293  138.5045   73.6608 C.ar        1 MOL      -0.0629
      8 C8        123.7664  138.2860   72.6433 C.ar        1 MOL      -0.0420
      9 N         122.1376  137.5554   68.6933 N.pl3       1 MOL      -0.2710
     10 S         124.7411  138.4119   70.1631 S.o2        1 MOL      -0.1624
     11 C9        123.3880  138.3287   71.2800 C.ar        1 MOL       0.0589
     12 C10       122.0079  138.4875   70.9227 C.ar        1 MOL       0.0329
     13 C11       121.8521  137.0192   67.4604 C.ar        1 MOL       0.0604
     14 C12       120.5650  136.6815   66.9729 C.ar        1 MOL      -0.0391
     15 C13       120.4073  136.0835   65.7051 C.ar        1 MOL      -0.0719
     16 C14       121.5308  135.7545   64.9308 C.ar        1 MOL      -0.0738
     17 C15       122.8173  136.0275   65.4206 C.ar        1 MOL      -0.0719
     18 C16       122.9677  136.6626   66.6671 C.ar        1 MOL      -0.0391
     19 O1        124.3452  139.3313   68.7990 O.co2       1 MOL      -0.4795
     20 O2        125.1593  136.8413   69.6929 O.co2       1 MOL      -0.4795
     21 O3        126.0887  139.1252   70.8949 O.co2       1 MOL      -0.4795
     22 H1        119.8469  138.9412   68.3672 H           1 MOL       0.0480
     23 H2        118.4019  139.6442   70.1481 H           1 MOL       0.0576
     24 H3        119.1392  139.5298   72.4316 H           1 MOL       0.0477
     25 H4        120.8511  139.0417   74.0818 H           1 MOL       0.0595
     26 H5        123.1199  138.4886   74.6404 H           1 MOL       0.0613
     27 H6        124.7418  138.1359   72.9199 H           1 MOL       0.0604
     28 H7        123.0021  137.2798   69.0071 H           1 MOL       0.2117
     29 H8        119.7345  136.8147   67.5484 H           1 MOL       0.0532
     30 H9        119.4689  135.8618   65.3527 H           1 MOL       0.0586
     31 H10       121.4188  135.2857   64.0285 H           1 MOL       0.0516
     32 H11       123.6423  135.7615   64.8812 H           1 MOL       0.0586
     33 H12       123.9228  136.8506   67.0084 H           1 MOL       0.0532
@<TRIPOS>BOND
     1     1     2  ar
     2     1     9   1
     3     1    12  ar
     4     2     3  ar
     5     3     4  ar
     6     4     5  ar
     7     5     6  ar
     8     5    12  ar
     9     6     7  ar
    10     7     8  ar
    11     8    11  ar
    12     9    13   1
    13    11    10   1
    14    10    19  ar
    15    10    20  ar
    16    10    21  ar
    17    11    12  ar
    18    13    14  ar
    19    13    18  ar
    20    14    15  ar
    21    15    16  ar
    22    16    17  ar
    23    17    18  ar
    24     2    22   1
    25     3    23   1
    26     4    24   1
    27     6    25   1
    28     7    26   1
    29     8    27   1
    30     9    28   1
    31    14    29   1
    32    15    30   1
    33    16    31   1
    34    17    32   1
    35    18    33   1
@<TRIPOS>SUBSTRUCTURE
     1  MOL      1

