@<TRIPOS>MOLECULE
3pxf_ligand_022
    33    35
SMALL
GAST_HUCK
****
This file was generated by PARSER (from files_GN.cpp)

@<TRIPOS>ATOM
      1 C1        119.7093  140.2858   71.5564 C.ar        1 MOL       0.0730
      2 C2        120.0847  139.2510   72.4425 C.ar        1 MOL      -0.0412
      3 C3        121.3406  138.6310   72.3464 C.ar        1 MOL      -0.0768
      4 C4        122.2400  139.0434   71.3514 C.ar        1 MOL      -0.0703
      5 C5        121.9330  140.1534   70.5405 C.ar        1 MOL      -0.0263
      6 C6        122.8836  140.5712   69.5797 C.ar        1 MOL      -0.0593
      7 C7        122.6606  141.7296   68.8284 C.ar        1 MOL      -0.0629
      8 C8        121.5352  142.5214   69.0880 C.ar        1 MOL      -0.0420
      9 N         118.3720  140.5203   71.5428 N.pl3       1 MOL      -0.2710
     10 S         119.4719  143.4195   70.5239 S.o2        1 MOL      -0.1624
     11 C9        120.5755  142.1383   70.0515 C.ar        1 MOL       0.0589
     12 C10       120.7019  140.8693   70.7014 C.ar        1 MOL       0.0329
     13 C11       117.5183  140.6091   70.4725 C.ar        1 MOL       0.0604
     14 C12       117.8195  140.1887   69.1540 C.ar        1 MOL      -0.0391
     15 C13       116.8544  140.2627   68.1309 C.ar        1 MOL      -0.0719
     16 C14       115.5573  140.7245   68.4171 C.ar        1 MOL      -0.0738
     17 C15       115.2333  141.1134   69.7259 C.ar        1 MOL      -0.0719
     18 C16       116.2014  141.0507   70.7449 C.ar        1 MOL      -0.0391
     19 O1        118.9931  143.2579   72.1369 O.co2       1 MOL      -0.4795
     20 O2        118.1109  143.4237   69.5203 O.co2       1 MOL      -0.4795
     21 O3        120.2155  144.9279   70.3325 O.co2       1 MOL      -0.4795
     22 H1        119.4111  138.8630   73.1101 H           1 MOL       0.0480
     23 H2        121.5756  137.8435   72.9530 H           1 MOL       0.0576
     24 H3        123.1288  138.5433   71.2582 H           1 MOL       0.0477
     25 H4        123.7447  140.0431   69.4264 H           1 MOL       0.0595
     26 H5        123.3503  142.0288   68.1374 H           1 MOL       0.0613
     27 H6        121.4509  143.4068   68.5856 H           1 MOL       0.0604
     28 H7        117.9137  140.3187   72.3814 H           1 MOL       0.2117
     29 H8        118.7415  139.8169   68.9189 H           1 MOL       0.0532
     30 H9        117.0874  139.9682   67.1787 H           1 MOL       0.0586
     31 H10       114.8506  140.7628   67.6797 H           1 MOL       0.0516
     32 H11       114.2878  141.4419   69.9360 H           1 MOL       0.0586
     33 H12       115.9408  141.3377   71.6918 H           1 MOL       0.0532
@<TRIPOS>BOND
     1     1     2  ar
     2     1     9   1
     3     1    12  ar
     4     2     3  ar
     5     3     4  ar
     6     4     5  ar
     7     5     6  ar
     8     5    12  ar
     9     6     7  ar
    10     7     8  ar
    11     8    11  ar
    12     9    13   1
    13    11    10   1
    14    10    19  ar
    15    10    20  ar
    16    10    21  ar
    17    11    12  ar
    18    13    14  ar
    19    13    18  ar
    20    14    15  ar
    21    15    16  ar
    22    16    17  ar
    23    17    18  ar
    24     2    22   1
    25     3    23   1
    26     4    24   1
    27     6    25   1
    28     7    26   1
    29     8    27   1
    30     9    28   1
    31    14    29   1
    32    15    30   1
    33    16    31   1
    34    17    32   1
    35    18    33   1
@<TRIPOS>SUBSTRUCTURE
     1  MOL      1

