@<TRIPOS>MOLECULE
3pxf_ligand_007
    33    35
SMALL
GAST_HUCK
****
This file was generated by PARSER (from files_GN.cpp)

@<TRIPOS>ATOM
      1 C1        117.5798  133.3533   64.1373 C.ar        1 MOL       0.0730
      2 C2        118.2786  133.7650   65.2968 C.ar        1 MOL      -0.0412
      3 C3        118.2216  135.0948   65.7348 C.ar        1 MOL      -0.0768
      4 C4        117.4502  136.0268   65.0299 C.ar        1 MOL      -0.0703
      5 C5        116.6524  135.6126   63.9414 C.ar        1 MOL      -0.0263
      6 C6        115.8560  136.5776   63.2837 C.ar        1 MOL      -0.0593
      7 C7        114.9851  136.1925   62.2633 C.ar        1 MOL      -0.0629
      8 C8        114.8544  134.8373   61.9373 C.ar        1 MOL      -0.0420
      9 N         118.0300  132.1725   63.6411 N.pl3       1 MOL      -0.2710
     10 S         115.0203  132.2121   62.3551 S.o2        1 MOL      -0.1624
     11 C9        115.6142  133.8449   62.6008 C.ar        1 MOL       0.0589
     12 C10       116.6282  134.2383   63.5340 C.ar        1 MOL       0.0329
     13 C11       118.2760  131.8583   62.3348 C.ar        1 MOL       0.0604
     14 C12       118.9673  132.7168   61.4439 C.ar        1 MOL      -0.0391
     15 C13       119.3316  132.2675   60.1598 C.ar        1 MOL      -0.0719
     16 C14       119.0187  130.9609   59.7503 C.ar        1 MOL      -0.0738
     17 C15       118.3227  130.1035   60.6228 C.ar        1 MOL      -0.0719
     18 C16       117.9720  130.5463   61.9104 C.ar        1 MOL      -0.0391
     19 O1        115.5843  131.1222   63.5178 O.co2       1 MOL      -0.4795
     20 O2        115.4759  131.6907   60.8139 O.co2       1 MOL      -0.4795
     21 O3        113.3292  132.2046   62.4241 O.co2       1 MOL      -0.4795
     22 H1        118.9224  133.1352   65.7820 H           1 MOL       0.0480
     23 H2        118.7773  135.3952   66.5378 H           1 MOL       0.0576
     24 H3        117.4673  137.0063   65.3312 H           1 MOL       0.0477
     25 H4        115.8807  137.5658   63.5557 H           1 MOL       0.0595
     26 H5        114.4062  136.8892   61.7889 H           1 MOL       0.0613
     27 H6        114.1486  134.5900   61.2408 H           1 MOL       0.0604
     28 H7        118.4860  131.5967   64.2757 H           1 MOL       0.2117
     29 H8        119.2429  133.6555   61.7324 H           1 MOL       0.0532
     30 H9        119.8593  132.8783   59.5358 H           1 MOL       0.0586
     31 H10       119.3060  130.6294   58.8311 H           1 MOL       0.0516
     32 H11       118.0984  129.1518   60.3338 H           1 MOL       0.0586
     33 H12       117.4838  129.9077   62.5383 H           1 MOL       0.0532
@<TRIPOS>BOND
     1     1     2  ar
     2     1     9   1
     3     1    12  ar
     4     2     3  ar
     5     3     4  ar
     6     4     5  ar
     7     5     6  ar
     8     5    12  ar
     9     6     7  ar
    10     7     8  ar
    11     8    11  ar
    12     9    13   1
    13    11    10   1
    14    10    19  ar
    15    10    20  ar
    16    10    21  ar
    17    11    12  ar
    18    13    14  ar
    19    13    18  ar
    20    14    15  ar
    21    15    16  ar
    22    16    17  ar
    23    17    18  ar
    24     2    22   1
    25     3    23   1
    26     4    24   1
    27     6    25   1
    28     7    26   1
    29     8    27   1
    30     9    28   1
    31    14    29   1
    32    15    30   1
    33    16    31   1
    34    17    32   1
    35    18    33   1
@<TRIPOS>SUBSTRUCTURE
     1  MOL      1

