@<TRIPOS>MOLECULE
3pxf_ligand_037
    33    35
SMALL
GAST_HUCK
****
This file was generated by PARSER (from files_GN.cpp)

@<TRIPOS>ATOM
      1 C1        113.1017  144.0551   68.9893 C.ar        1 MOL       0.0730
      2 C2        112.1524  143.8569   70.0254 C.ar        1 MOL      -0.0412
      3 C3        111.1612  144.8059   70.2823 C.ar        1 MOL      -0.0768
      4 C4        111.1225  145.9834   69.5303 C.ar        1 MOL      -0.0703
      5 C5        112.1017  146.2356   68.5428 C.ar        1 MOL      -0.0263
      6 C6        112.0506  147.4674   67.8671 C.ar        1 MOL      -0.0593
      7 C7        113.0264  147.8137   66.9343 C.ar        1 MOL      -0.0629
      8 C8        114.0679  146.9204   66.6655 C.ar        1 MOL      -0.0420
      9 N         113.8758  142.9908   68.6561 N.pl3       1 MOL      -0.2710
     10 S         115.6120  144.7609   66.9017 S.o2        1 MOL      -0.1624
     11 C9        114.1522  145.6527   67.2984 C.ar        1 MOL       0.0589
     12 C10       113.1320  145.2837   68.2489 C.ar        1 MOL       0.0329
     13 C11       114.6615  142.2299   69.4707 C.ar        1 MOL       0.0604
     14 C12       115.3859  142.8123   70.5428 C.ar        1 MOL      -0.0391
     15 C13       116.3753  142.0850   71.2270 C.ar        1 MOL      -0.0719
     16 C14       116.6346  140.7552   70.8613 C.ar        1 MOL      -0.0738
     17 C15       115.9120  140.1516   69.8037 C.ar        1 MOL      -0.0719
     18 C16       114.9336  140.8934   69.1156 C.ar        1 MOL      -0.0391
     19 O1        116.6029  145.5774   65.7967 O.co2       1 MOL      -0.4795
     20 O2        115.1913  143.2604   66.2497 O.co2       1 MOL      -0.4795
     21 O3        116.5275  144.5191   68.3033 O.co2       1 MOL      -0.4795
     22 H1        112.1202  142.9834   70.5603 H           1 MOL       0.0480
     23 H2        110.4394  144.6147   70.9806 H           1 MOL       0.0576
     24 H3        110.3739  146.6603   69.7256 H           1 MOL       0.0477
     25 H4        111.2938  148.1386   68.0573 H           1 MOL       0.0595
     26 H5        112.9973  148.7189   66.4759 H           1 MOL       0.0613
     27 H6        114.7878  147.2374   66.0097 H           1 MOL       0.0604
     28 H7        114.0212  142.8363   67.7110 H           1 MOL       0.2117
     29 H8        115.2456  143.7908   70.8039 H           1 MOL       0.0532
     30 H9        116.9186  142.5423   71.9654 H           1 MOL       0.0586
     31 H10       117.3694  140.2375   71.3442 H           1 MOL       0.0516
     32 H11       116.1254  139.1968   69.5308 H           1 MOL       0.0586
     33 H12       114.4514  140.4623   68.3239 H           1 MOL       0.0532
@<TRIPOS>BOND
     1     1     2  ar
     2     1     9   1
     3     1    12  ar
     4     2     3  ar
     5     3     4  ar
     6     4     5  ar
     7     5     6  ar
     8     5    12  ar
     9     6     7  ar
    10     7     8  ar
    11     8    11  ar
    12     9    13   1
    13    11    10   1
    14    10    19  ar
    15    10    20  ar
    16    10    21  ar
    17    11    12  ar
    18    13    14  ar
    19    13    18  ar
    20    14    15  ar
    21    15    16  ar
    22    16    17  ar
    23    17    18  ar
    24     2    22   1
    25     3    23   1
    26     4    24   1
    27     6    25   1
    28     7    26   1
    29     8    27   1
    30     9    28   1
    31    14    29   1
    32    15    30   1
    33    16    31   1
    34    17    32   1
    35    18    33   1
@<TRIPOS>SUBSTRUCTURE
     1  MOL      1

