@<TRIPOS>MOLECULE
3s8o_ligand_003
    67    68
SMALL
GAST_HUCK
****
This file was generated by PARSER (from files_GN.cpp)

@<TRIPOS>ATOM
      1 C           7.2277   -7.7235   -2.0275 C.2         1 ACE       0.1753
      2 O           7.2784   -8.8164   -2.5718 O.2         1 ACE      -0.3972
      3 CH3         6.1707   -6.8174   -2.4170 C.3         1 ACE       0.0258
      4 N           8.0914   -7.3693   -1.0922 N.am        1 ACE      -0.2628
      5 CA          9.1488   -8.1642   -0.5217 C.3         1 ACE       0.1465
      6 C           9.4490   -7.5984    0.7923 C.2         1 ACE       0.2045
      7 O          10.0218   -6.5149    0.8416 O.2         1 ACE      -0.3944
      8 CB         10.4367   -8.2030   -1.4118 C.3         1 ACE       0.0400
      9 CG         10.4875   -9.3197   -2.3962 C.ar        1 ACE      -0.0004
     10 CD1        10.4191  -10.6642   -1.9551 C.ar        1 ACE      -0.0239
     11 CD2        10.6389   -9.0832   -3.7825 C.ar        1 ACE      -0.0239
     12 CE1        10.4388  -11.7289   -2.8736 C.ar        1 ACE       0.0115
     13 CE2        10.6402  -10.1518   -4.7067 C.ar        1 ACE       0.0115
     14 CZ         10.5250  -11.4921   -4.2628 C.ar        1 ACE       0.1728
     15 OH         10.2492  -12.5826   -5.0659 O.3         1 ACE      -0.2040
     16 P          10.4704  -12.6085   -6.6037 P.3         1 ACE       0.1348
     17 O1P         9.5881  -13.6474   -7.1053 O.co2       1 ACE      -0.6653
     18 O2P        10.0399  -11.4186   -7.2960 O.co2       1 ACE      -0.6653
     19 O3P        11.7998  -12.9725   -7.0594 O.co2       1 ACE      -0.6653
     20 O           7.7900   -6.2470    3.9300 O.2         1 ACE      -0.3419
     21 CD         11.1937   -8.2068    5.7133 C.3         1 ACE      -0.0532
     22 CG         10.8453   -6.8271    5.1074 C.3         1 ACE      -0.0516
     23 CE         10.0639   -9.2307    5.4486 C.3         1 ACE      -0.0516
     24 CB         10.4635   -6.9247    3.5994 C.3         1 ACE      -0.0199
     25 CH          9.7185   -9.3035    3.9397 C.3         1 ACE      -0.0199
     26 N           9.0895   -8.2452    1.8998 N.am        1 ACE      -0.2738
     27 C           7.9662   -7.4546    3.7827 C.2         1 ACE       0.2267
     28 CA          9.2825   -7.9299    3.3029 C.3         1 ACE       0.1331
     29 N           6.9257   -8.2787    3.9108 N.am        1 ACE      -0.2608
     30 CA          5.5350   -7.9919    4.1852 C.3         1 ACE       0.1474
     31 C           4.8865   -7.4359    2.9991 C.2         1 ACE       0.2017
     32 O           4.1040   -8.1075    2.3387 O.2         1 ACE      -0.3945
     33 CB          5.2635   -7.1638    5.4892 C.3         1 ACE       0.0774
     34 CG          5.3520   -7.9149    6.7304 C.2         1 ACE       0.1781
     35 OD1         4.5143   -7.7688    7.6091 O.2         1 ACE      -0.3970
     36 ND2         6.3186   -8.7707    6.9677 N.am        1 ACE      -0.3007
     37 N           5.0694   -6.1930    2.6086 N.am        1 ACE      -0.2988
     38 H1          6.2188   -5.8752   -1.8642 H           1 ACE       0.0467
     39 H2          5.1974   -7.2756   -2.2242 H           1 ACE       0.0467
     40 H3          6.2481   -6.5920   -3.4831 H           1 ACE       0.0467
     41 H4          7.9477   -6.4945   -0.6928 H           1 ACE       0.1885
     42 H5          8.7753   -9.1857   -0.3867 H           1 ACE       0.0840
     43 H6         11.3248   -8.3161   -0.7862 H           1 ACE       0.0584
     44 H7         10.5386   -7.2444   -1.9274 H           1 ACE       0.0584
     45 H8         10.3433  -10.8689   -0.9554 H           1 ACE       0.0703
     46 H9         10.7165   -8.1262   -4.1402 H           1 ACE       0.0703
     47 H10        10.3371  -12.6835   -2.5225 H           1 ACE       0.0736
     48 H11        10.6803   -9.9437   -5.7071 H           1 ACE       0.0736
     49 H12        11.3471   -8.1047    6.7899 H           1 ACE       0.0265
     50 H13        12.1220   -8.5729    5.2728 H           1 ACE       0.0265
     51 H14        11.7101   -6.1591    5.2157 H           1 ACE       0.0265
     52 H15        10.0148   -6.3800    5.6664 H           1 ACE       0.0265
     53 H16         9.1763   -8.9457    6.0150 H           1 ACE       0.0265
     54 H17        10.3818  -10.2172    5.7969 H           1 ACE       0.0265
     55 H18        11.3547   -7.2351    3.0503 H           1 ACE       0.0277
     56 H19        10.2133   -5.9180    3.2614 H           1 ACE       0.0277
     57 H20         8.9441  -10.0611    3.7958 H           1 ACE       0.0277
     58 H21        10.6057   -9.6764    3.4188 H           1 ACE       0.0277
     59 H22         8.5768   -9.0613    1.7409 H           1 ACE       0.1839
     60 H23         7.1186   -9.2187    3.7736 H           1 ACE       0.1891
     61 H24         5.0840   -8.9791    4.3479 H           1 ACE       0.0828
     62 H25         4.2618   -6.7220    5.4254 H           1 ACE       0.0551
     63 H26         5.9641   -6.3309    5.5592 H           1 ACE       0.0551
     64 H27         6.3260   -9.2829    7.7918 H           1 ACE       0.1814
     65 H28         7.0000   -8.9229    6.2987 H           1 ACE       0.1814
     66 H29         4.6022   -5.8592    1.8263 H           1 ACE       0.1815
     67 H30         5.6442   -5.6010    3.1160 H           1 ACE       0.1815
@<TRIPOS>BOND
     1     1     2   2
     2     1     3   1
     3     4     1  am
     4     5     4   1
     5     6     5   1
     6     5     8   1
     7     6     7   2
     8    26     6  am
     9     8     9   1
    10     9    10  ar
    11     9    11  ar
    12    10    12  ar
    13    11    13  ar
    14    12    14  ar
    15    13    14  ar
    16    14    15   1
    17    15    16   1
    18    16    17  ar
    19    16    18  ar
    20    16    19  ar
    21    27    20   2
    22    22    21   1
    23    23    21   1
    24    24    22   1
    25    25    23   1
    26    28    24   1
    27    28    25   1
    28    28    26   1
    29    27    28   1
    30    27    29  am
    31    29    30   1
    32    30    31   1
    33    30    33   1
    34    31    32   2
    35    31    37  am
    36    33    34   1
    37    34    35   2
    38    34    36  am
    39     3    38   1
    40     3    39   1
    41     3    40   1
    42     4    41   1
    43     5    42   1
    44     8    43   1
    45     8    44   1
    46    10    45   1
    47    11    46   1
    48    12    47   1
    49    13    48   1
    50    21    49   1
    51    21    50   1
    52    22    51   1
    53    22    52   1
    54    23    53   1
    55    23    54   1
    56    24    55   1
    57    24    56   1
    58    25    57   1
    59    25    58   1
    60    26    59   1
    61    29    60   1
    62    30    61   1
    63    33    62   1
    64    33    63   1
    65    36    64   1
    66    36    65   1
    67    37    66   1
    68    37    67   1
@<TRIPOS>SUBSTRUCTURE
     1  ACE      1

