@<TRIPOS>MOLECULE
3s8o_ligand_038
    67    68
SMALL
GAST_HUCK
****
This file was generated by PARSER (from files_GN.cpp)

@<TRIPOS>ATOM
      1 C          12.3636   -6.4233   -3.3248 C.2         1 ACE       0.1753
      2 O          12.5109   -5.2116   -3.4493 O.2         1 ACE      -0.3972
      3 CH3        13.1354   -7.0873   -2.2952 C.3         1 ACE       0.0258
      4 N          11.5366   -7.1191   -4.0985 N.am        1 ACE      -0.2628
      5 CA         10.7075   -6.6156   -5.1633 C.3         1 ACE       0.1465
      6 C           9.3095   -6.7874   -4.7894 C.2         1 ACE       0.2045
      7 O           8.7938   -7.8936   -4.9071 O.2         1 ACE      -0.3944
      8 CB         11.0907   -7.2558   -6.5374 C.3         1 ACE       0.0400
      9 CG         10.7280   -8.6910   -6.7303 C.ar        1 ACE      -0.0004
     10 CD1        11.4379   -9.7221   -6.0675 C.ar        1 ACE      -0.0239
     11 CD2         9.6511   -9.0509   -7.5744 C.ar        1 ACE      -0.0239
     12 CE1        11.0794  -11.0727   -6.2466 C.ar        1 ACE       0.0115
     13 CE2         9.2903  -10.3973   -7.7504 C.ar        1 ACE       0.0115
     14 CZ         10.0180  -11.4213   -7.1099 C.ar        1 ACE       0.1728
     15 OH          9.6197  -12.7268   -7.2674 O.3         1 ACE      -0.2040
     16 P          10.3349  -13.4772   -8.4272 P.3         1 ACE       0.1348
     17 O1P         9.5844  -14.6696   -8.7431 O.co2       1 ACE      -0.6653
     18 O2P        10.4301  -12.7140   -9.6519 O.co2       1 ACE      -0.6653
     19 O3P        11.6614  -13.9043   -8.0407 O.co2       1 ACE      -0.6653
     20 O           6.2650   -7.6686   -2.8922 O.2         1 ACE      -0.3419
     21 CD          4.5600   -4.3453   -4.3194 C.3         1 ACE      -0.0532
     22 CG          4.8331   -5.7479   -4.9039 C.3         1 ACE      -0.0516
     23 CE          5.4155   -4.0537   -3.0605 C.3         1 ACE      -0.0516
     24 CB          6.3542   -6.0128   -5.1179 C.3         1 ACE      -0.0199
     25 CH          6.9257   -4.2974   -3.3364 C.3         1 ACE      -0.0199
     26 N           8.6266   -5.7817   -4.2452 N.am        1 ACE      -0.2738
     27 C           7.0276   -6.7223   -2.7405 C.2         1 ACE       0.2267
     28 CA          7.2366   -5.7525   -3.8361 C.3         1 ACE       0.1331
     29 N           7.7743   -6.6690   -1.6393 N.am        1 ACE      -0.2608
     30 CA          7.7917   -7.5631   -0.5099 C.3         1 ACE       0.1474
     31 C           8.3230   -8.8859   -0.8568 C.2         1 ACE       0.2017
     32 O           7.9720   -9.4655   -1.8738 O.2         1 ACE      -0.3945
     33 CB          6.4702   -7.5452    0.3341 C.3         1 ACE       0.0774
     34 CG          5.5040   -8.6231    0.1277 C.2         1 ACE       0.1781
     35 OD1         5.2236   -9.3865    1.0414 O.2         1 ACE      -0.3970
     36 ND2         4.8808   -8.8025   -1.0143 N.am        1 ACE      -0.3007
     37 N           9.1923   -9.5127   -0.0913 N.am        1 ACE      -0.2988
     38 H1         12.9372   -8.1595   -2.2726 H           1 ACE       0.0467
     39 H2         12.8833   -6.6682   -1.3209 H           1 ACE       0.0467
     40 H3         14.1993   -6.9364   -2.4803 H           1 ACE       0.0467
     41 H4         11.4796   -8.0685   -3.9230 H           1 ACE       0.1885
     42 H5         10.8967   -5.5421   -5.2926 H           1 ACE       0.0840
     43 H6         12.1678   -7.1543   -6.6880 H           1 ACE       0.0584
     44 H7         10.6242   -6.6535   -7.3216 H           1 ACE       0.0584
     45 H8         12.2227   -9.4930   -5.4528 H           1 ACE       0.0703
     46 H9          9.1053   -8.3331   -8.0554 H           1 ACE       0.0703
     47 H10        11.6040  -11.8028   -5.7573 H           1 ACE       0.0736
     48 H11         8.5069  -10.6369   -8.3566 H           1 ACE       0.0736
     49 H12         3.5014   -4.2601   -4.0590 H           1 ACE       0.0265
     50 H13         4.7736   -3.5907   -5.0798 H           1 ACE       0.0265
     51 H14         4.3133   -5.8436   -5.8609 H           1 ACE       0.0265
     52 H15         4.4135   -6.5083   -4.2373 H           1 ACE       0.0265
     53 H16         5.0868   -4.6921   -2.2386 H           1 ACE       0.0265
     54 H17         5.2629   -3.0167   -2.7585 H           1 ACE       0.0265
     55 H18         6.6925   -5.3633   -5.9280 H           1 ACE       0.0277
     56 H19         6.4781   -7.0417   -5.4634 H           1 ACE       0.0277
     57 H20         7.4834   -4.0698   -2.4254 H           1 ACE       0.0277
     58 H21         7.2464   -3.5749   -4.0917 H           1 ACE       0.0277
     59 H22         9.1203   -4.9642   -4.0985 H           1 ACE       0.1839
     60 H23         8.4100   -5.9397   -1.6010 H           1 ACE       0.1891
     61 H24         8.5429   -7.1006    0.1376 H           1 ACE       0.0828
     62 H25         5.9440   -6.5956    0.1911 H           1 ACE       0.0551
     63 H26         6.7362   -7.5606    1.3999 H           1 ACE       0.0551
     64 H27         4.2408   -9.5292   -1.1155 H           1 ACE       0.1814
     65 H28         5.0231   -8.1909   -1.7563 H           1 ACE       0.1814
     66 H29         9.5049  -10.4037   -0.3427 H           1 ACE       0.1815
     67 H30         9.5100   -9.1115    0.7394 H           1 ACE       0.1815
@<TRIPOS>BOND
     1     1     2   2
     2     1     3   1
     3     4     1  am
     4     5     4   1
     5     6     5   1
     6     5     8   1
     7     6     7   2
     8    26     6  am
     9     8     9   1
    10     9    10  ar
    11     9    11  ar
    12    10    12  ar
    13    11    13  ar
    14    12    14  ar
    15    13    14  ar
    16    14    15   1
    17    15    16   1
    18    16    17  ar
    19    16    18  ar
    20    16    19  ar
    21    27    20   2
    22    22    21   1
    23    23    21   1
    24    24    22   1
    25    25    23   1
    26    28    24   1
    27    28    25   1
    28    28    26   1
    29    27    28   1
    30    27    29  am
    31    29    30   1
    32    30    31   1
    33    30    33   1
    34    31    32   2
    35    31    37  am
    36    33    34   1
    37    34    35   2
    38    34    36  am
    39     3    38   1
    40     3    39   1
    41     3    40   1
    42     4    41   1
    43     5    42   1
    44     8    43   1
    45     8    44   1
    46    10    45   1
    47    11    46   1
    48    12    47   1
    49    13    48   1
    50    21    49   1
    51    21    50   1
    52    22    51   1
    53    22    52   1
    54    23    53   1
    55    23    54   1
    56    24    55   1
    57    24    56   1
    58    25    57   1
    59    25    58   1
    60    26    59   1
    61    29    60   1
    62    30    61   1
    63    33    62   1
    64    33    63   1
    65    36    64   1
    66    36    65   1
    67    37    66   1
    68    37    67   1
@<TRIPOS>SUBSTRUCTURE
     1  ACE      1

