@<TRIPOS>MOLECULE
3s8o_ligand_055
    67    68
SMALL
GAST_HUCK
****
This file was generated by PARSER (from files_GN.cpp)

@<TRIPOS>ATOM
      1 C           5.5110   -8.8234    3.0807 C.2         1 ACE       0.1753
      2 O           4.5409   -8.1274    2.8122 O.2         1 ACE      -0.3972
      3 CH3         5.3084  -10.2412    3.2654 C.3         1 ACE       0.0258
      4 N           6.7331   -8.3177    3.1807 N.am        1 ACE      -0.2628
      5 CA          7.1420   -6.9531    2.9395 C.3         1 ACE       0.1465
      6 C           7.5251   -6.7402    1.5441 C.2         1 ACE       0.2045
      7 O           7.6804   -5.5803    1.1788 O.2         1 ACE      -0.3944
      8 CB          8.3012   -6.5627    3.9251 C.3         1 ACE       0.0400
      9 CG          7.8275   -5.7912    5.1113 C.ar        1 ACE      -0.0004
     10 CD1         6.6282   -6.1493    5.7669 C.ar        1 ACE      -0.0239
     11 CD2         8.5564   -4.6749    5.5846 C.ar        1 ACE      -0.0239
     12 CE1         6.1490   -5.3902    6.8487 C.ar        1 ACE       0.0115
     13 CE2         8.0789   -3.9203    6.6705 C.ar        1 ACE       0.0115
     14 CZ          6.8514   -4.2475    7.2801 C.ar        1 ACE       0.1728
     15 OH          6.3797   -3.5049    8.3326 O.3         1 ACE      -0.2040
     16 P           5.2985   -2.4664    7.9231 P.3         1 ACE       0.1348
     17 O1P         5.8185   -1.3458    7.1732 O.co2       1 ACE      -0.6653
     18 O2P         4.2067   -3.0766    7.1991 O.co2       1 ACE      -0.6653
     19 O3P         4.7407   -1.9366    9.1487 O.co2       1 ACE      -0.6653
     20 O           7.0483   -8.8510   -2.4595 O.2         1 ACE      -0.3419
     21 CD         11.1471   -7.3155   -0.5853 C.3         1 ACE      -0.0532
     22 CG         10.5117   -8.6042   -0.0042 C.3         1 ACE      -0.0516
     23 CE         10.1406   -6.1351   -0.5795 C.3         1 ACE      -0.0516
     24 CB          9.1932   -8.9630   -0.7458 C.3         1 ACE      -0.0199
     25 CH          8.8083   -6.5181   -1.2844 C.3         1 ACE      -0.0199
     26 N           7.7327   -7.7614    0.7163 N.am        1 ACE      -0.2738
     27 C           6.9278   -8.1276   -1.4760 C.2         1 ACE       0.2267
     28 CA          8.1235   -7.8037   -0.6779 C.3         1 ACE       0.1331
     29 N           5.7658   -7.5087   -1.2584 N.am        1 ACE      -0.2608
     30 CA          4.5767   -7.6081   -2.0668 C.3         1 ACE       0.1474
     31 C           3.6445   -6.5130   -1.8092 C.2         1 ACE       0.2017
     32 O           3.6007   -5.9346   -0.7326 O.2         1 ACE      -0.3945
     33 CB          3.8957   -9.0096   -1.9532 C.3         1 ACE       0.0774
     34 CG          3.0260   -9.1941   -0.7992 C.2         1 ACE       0.1781
     35 OD1         3.3985   -9.8293    0.1764 O.2         1 ACE      -0.3970
     36 ND2         1.8064   -8.6973   -0.7767 N.am        1 ACE      -0.3007
     37 N           2.7699   -6.1450   -2.7194 N.am        1 ACE      -0.2988
     38 H1          6.2516  -10.7617    3.4474 H           1 ACE       0.0467
     39 H2          4.8492  -10.6738    2.3764 H           1 ACE       0.0467
     40 H3          4.6479  -10.4048    4.1171 H           1 ACE       0.0467
     41 H4          7.4474   -8.9524    3.3626 H           1 ACE       0.1885
     42 H5          6.2767   -6.3035    3.1134 H           1 ACE       0.0840
     43 H6          9.0787   -5.9925    3.4037 H           1 ACE       0.0584
     44 H7          8.8091   -7.4578    4.2883 H           1 ACE       0.0584
     45 H8          6.0927   -6.9662    5.4566 H           1 ACE       0.0703
     46 H9          9.4294   -4.3947    5.1359 H           1 ACE       0.0703
     47 H10         5.2756   -5.6550    7.3071 H           1 ACE       0.0736
     48 H11         8.6142   -3.1125    6.9963 H           1 ACE       0.0736
     49 H12        11.4714   -7.5054   -1.6154 H           1 ACE       0.0265
     50 H13        12.0325   -7.0455   -0.0018 H           1 ACE       0.0265
     51 H14        10.3196   -8.4516    1.0623 H           1 ACE       0.0265
     52 H15        11.2165   -9.4337   -0.1058 H           1 ACE       0.0265
     53 H16        10.5901   -5.2822   -1.0957 H           1 ACE       0.0265
     54 H17         9.9297   -5.8255    0.4489 H           1 ACE       0.0265
     55 H18         8.7949   -9.8830   -0.3084 H           1 ACE       0.0277
     56 H19         9.4491   -9.1902   -1.7877 H           1 ACE       0.0277
     57 H20         9.0363   -6.6833   -2.3441 H           1 ACE       0.0277
     58 H21         8.1356   -5.6584   -1.2468 H           1 ACE       0.0277
     59 H22         7.5375   -8.6369    1.0900 H           1 ACE       0.1839
     60 H23         5.7480   -6.8703   -0.5297 H           1 ACE       0.1891
     61 H24         4.8986   -7.4797   -3.1016 H           1 ACE       0.0828
     62 H25         4.6624   -9.7859   -1.9354 H           1 ACE       0.0551
     63 H26         3.3116   -9.1852   -2.8603 H           1 ACE       0.0551
     64 H27         1.2300   -8.8497   -0.0098 H           1 ACE       0.1814
     65 H28         1.4683   -8.1946   -1.5367 H           1 ACE       0.1814
     66 H29         2.1436   -5.4318   -2.5251 H           1 ACE       0.1815
     67 H30         2.7544   -6.5748   -3.5874 H           1 ACE       0.1815
@<TRIPOS>BOND
     1     1     2   2
     2     1     3   1
     3     4     1  am
     4     5     4   1
     5     6     5   1
     6     5     8   1
     7     6     7   2
     8    26     6  am
     9     8     9   1
    10     9    10  ar
    11     9    11  ar
    12    10    12  ar
    13    11    13  ar
    14    12    14  ar
    15    13    14  ar
    16    14    15   1
    17    15    16   1
    18    16    17  ar
    19    16    18  ar
    20    16    19  ar
    21    27    20   2
    22    22    21   1
    23    23    21   1
    24    24    22   1
    25    25    23   1
    26    28    24   1
    27    28    25   1
    28    28    26   1
    29    27    28   1
    30    27    29  am
    31    29    30   1
    32    30    31   1
    33    30    33   1
    34    31    32   2
    35    31    37  am
    36    33    34   1
    37    34    35   2
    38    34    36  am
    39     3    38   1
    40     3    39   1
    41     3    40   1
    42     4    41   1
    43     5    42   1
    44     8    43   1
    45     8    44   1
    46    10    45   1
    47    11    46   1
    48    12    47   1
    49    13    48   1
    50    21    49   1
    51    21    50   1
    52    22    51   1
    53    22    52   1
    54    23    53   1
    55    23    54   1
    56    24    55   1
    57    24    56   1
    58    25    57   1
    59    25    58   1
    60    26    59   1
    61    29    60   1
    62    30    61   1
    63    33    62   1
    64    33    63   1
    65    36    64   1
    66    36    65   1
    67    37    66   1
    68    37    67   1
@<TRIPOS>SUBSTRUCTURE
     1  ACE      1

