@<TRIPOS>MOLECULE
3s8o_ligand_094
    67    68
SMALL
GAST_HUCK
****
This file was generated by PARSER (from files_GN.cpp)

@<TRIPOS>ATOM
      1 C           7.0619   -8.7208    3.0133 C.2         1 ACE       0.1753
      2 O           7.1373   -9.8250    3.5393 O.2         1 ACE      -0.3972
      3 CH3         8.2926   -8.0869    2.6052 C.3         1 ACE       0.0258
      4 N           5.8958   -8.1253    2.8202 N.am        1 ACE      -0.2628
      5 CA          4.6055   -8.6041    3.2482 C.3         1 ACE       0.1465
      6 C           3.5535   -7.9915    2.4254 C.2         1 ACE       0.2045
      7 O           3.4192   -6.7754    2.4538 O.2         1 ACE      -0.3944
      8 CB          4.3731   -8.4229    4.7902 C.3         1 ACE       0.0400
      9 CG          4.8841   -7.2198    5.5294 C.ar        1 ACE      -0.0004
     10 CD1         5.3054   -7.3873    6.8747 C.ar        1 ACE      -0.0239
     11 CD2         4.9843   -5.9186    4.9694 C.ar        1 ACE      -0.0239
     12 CE1         5.7863   -6.3029    7.6286 C.ar        1 ACE       0.0115
     13 CE2         5.4753   -4.8340    5.7255 C.ar        1 ACE       0.0115
     14 CZ          5.8481   -5.0106    7.0749 C.ar        1 ACE       0.1728
     15 OH          6.3117   -3.9631    7.8287 O.3         1 ACE      -0.2040
     16 P           5.2927   -2.7916    8.0089 P.3         1 ACE       0.1348
     17 O1P         5.0614   -2.5182    9.4076 O.co2       1 ACE      -0.6653
     18 O2P         5.9151   -1.6075    7.4690 O.co2       1 ACE      -0.6653
     19 O3P         4.0230   -2.9100    7.3328 O.co2       1 ACE      -0.6653
     20 O           1.9912   -6.2217   -0.2798 O.2         1 ACE      -0.3419
     21 CD         -1.1802   -8.8083   -0.0666 C.3         1 ACE      -0.0532
     22 CG         -0.7549   -7.5348    0.7023 C.3         1 ACE      -0.0516
     23 CE         -0.0110   -9.3948   -0.8945 C.3         1 ACE      -0.0516
     24 CB          0.5329   -7.7668    1.5440 C.3         1 ACE      -0.0199
     25 CH          1.2405   -9.6362   -0.0087 C.3         1 ACE      -0.0199
     26 N           2.7954   -8.7542    1.6311 N.am        1 ACE      -0.2738
     27 C           2.3311   -7.3964   -0.2614 C.2         1 ACE       0.2267
     28 CA          1.7486   -8.3361    0.7177 C.3         1 ACE       0.1331
     29 N           3.2633   -7.8317   -1.1067 N.am        1 ACE      -0.2608
     30 CA          3.9252   -7.1133   -2.1640 C.3         1 ACE       0.1474
     31 C           3.5569   -7.6418   -3.4764 C.2         1 ACE       0.2017
     32 O           3.0427   -8.7386   -3.6250 O.2         1 ACE      -0.3945
     33 CB          5.4692   -7.1204   -1.9304 C.3         1 ACE       0.0774
     34 CG          6.0335   -8.3809   -1.4668 C.2         1 ACE       0.1781
     35 OD1         6.6783   -9.1099   -2.2086 O.2         1 ACE      -0.3970
     36 ND2         5.9625   -8.7185   -0.1953 N.am        1 ACE      -0.3007
     37 N           3.7434   -6.9194   -4.5600 N.am        1 ACE      -0.2988
     38 H1          8.1196   -7.0944    2.1883 H           1 ACE       0.0467
     39 H2          8.7881   -8.6998    1.8501 H           1 ACE       0.0467
     40 H3          8.9522   -7.9870    3.4685 H           1 ACE       0.0467
     41 H4          5.9166   -7.2664    2.3652 H           1 ACE       0.1885
     42 H5          4.5946   -9.6852    3.0516 H           1 ACE       0.0840
     43 H6          4.8353   -9.3001    5.2627 H           1 ACE       0.0584
     44 H7          3.3052   -8.5039    5.0001 H           1 ACE       0.0584
     45 H8          5.2801   -8.3146    7.3125 H           1 ACE       0.0703
     46 H9          4.6954   -5.7397    4.0058 H           1 ACE       0.0703
     47 H10         6.0994   -6.4548    8.5948 H           1 ACE       0.0736
     48 H11         5.5350   -3.9098    5.2969 H           1 ACE       0.0736
     49 H12        -2.0145   -8.5731   -0.7299 H           1 ACE       0.0265
     50 H13        -1.5181   -9.5545    0.6571 H           1 ACE       0.0265
     51 H14        -1.5662   -7.2301    1.3704 H           1 ACE       0.0265
     52 H15        -0.5954   -6.7207   -0.0110 H           1 ACE       0.0265
     53 H16         0.2348   -8.7123   -1.7121 H           1 ACE       0.0265
     54 H17        -0.3309  -10.3448   -1.3363 H           1 ACE       0.0265
     55 H18         0.2909   -8.4672    2.3491 H           1 ACE       0.0277
     56 H19         0.7894   -6.8139    2.0153 H           1 ACE       0.0277
     57 H20         2.0245  -10.0734   -0.6310 H           1 ACE       0.0277
     58 H21         0.9813  -10.3935    0.7361 H           1 ACE       0.0277
     59 H22         2.9836   -9.7096    1.6613 H           1 ACE       0.1839
     60 H23         3.5112   -8.7628   -1.0181 H           1 ACE       0.1891
     61 H24         3.6059   -6.0677   -2.1529 H           1 ACE       0.0828
     62 H25         5.7094   -6.3500   -1.1900 H           1 ACE       0.0551
     63 H26         5.9744   -6.8197   -2.8513 H           1 ACE       0.0551
     64 H27         6.3950   -9.5236    0.1252 H           1 ACE       0.1814
     65 H28         5.4779   -8.1524    0.4218 H           1 ACE       0.1814
     66 H29         3.4761   -7.2683   -5.4255 H           1 ACE       0.1815
     67 H30         4.1379   -6.0354   -4.4974 H           1 ACE       0.1815
@<TRIPOS>BOND
     1     1     2   2
     2     1     3   1
     3     4     1  am
     4     5     4   1
     5     6     5   1
     6     5     8   1
     7     6     7   2
     8    26     6  am
     9     8     9   1
    10     9    10  ar
    11     9    11  ar
    12    10    12  ar
    13    11    13  ar
    14    12    14  ar
    15    13    14  ar
    16    14    15   1
    17    15    16   1
    18    16    17  ar
    19    16    18  ar
    20    16    19  ar
    21    27    20   2
    22    22    21   1
    23    23    21   1
    24    24    22   1
    25    25    23   1
    26    28    24   1
    27    28    25   1
    28    28    26   1
    29    27    28   1
    30    27    29  am
    31    29    30   1
    32    30    31   1
    33    30    33   1
    34    31    32   2
    35    31    37  am
    36    33    34   1
    37    34    35   2
    38    34    36  am
    39     3    38   1
    40     3    39   1
    41     3    40   1
    42     4    41   1
    43     5    42   1
    44     8    43   1
    45     8    44   1
    46    10    45   1
    47    11    46   1
    48    12    47   1
    49    13    48   1
    50    21    49   1
    51    21    50   1
    52    22    51   1
    53    22    52   1
    54    23    53   1
    55    23    54   1
    56    24    55   1
    57    24    56   1
    58    25    57   1
    59    25    58   1
    60    26    59   1
    61    29    60   1
    62    30    61   1
    63    33    62   1
    64    33    63   1
    65    36    64   1
    66    36    65   1
    67    37    66   1
    68    37    67   1
@<TRIPOS>SUBSTRUCTURE
     1  ACE      1

