@<TRIPOS>MOLECULE
3s8o_ligand_012
    67    68
SMALL
GAST_HUCK
****
This file was generated by PARSER (from files_GN.cpp)

@<TRIPOS>ATOM
      1 C           5.6138   -6.4961    7.4337 C.2         1 ACE       0.1753
      2 O           5.9385   -7.5462    7.9729 O.2         1 ACE      -0.3972
      3 CH3         5.1026   -5.4466    8.2837 C.3         1 ACE       0.0258
      4 N           5.7165   -6.3149    6.1227 N.am        1 ACE      -0.2628
      5 CA          6.1635   -7.2884    5.1570 C.3         1 ACE       0.1465
      6 C           7.5424   -6.9925    4.7619 C.2         1 ACE       0.2045
      7 O           7.8309   -5.8618    4.3908 O.2         1 ACE      -0.3944
      8 CB          5.2218   -7.3818    3.9087 C.3         1 ACE       0.0400
      9 CG          3.7501   -7.3315    4.1628 C.ar        1 ACE      -0.0004
     10 CD1         2.8925   -6.5054    3.3841 C.ar        1 ACE      -0.0239
     11 CD2         3.1609   -8.1282    5.1705 C.ar        1 ACE      -0.0239
     12 CE1         1.4993   -6.4954    3.5984 C.ar        1 ACE       0.0115
     13 CE2         1.7696   -8.0984    5.3967 C.ar        1 ACE       0.0115
     14 CZ          0.9189   -7.3150    4.5897 C.ar        1 ACE       0.1728
     15 OH         -0.4259   -7.3320    4.8428 O.3         1 ACE      -0.2040
     16 P          -1.3281   -7.9705    3.7520 P.3         1 ACE       0.1348
     17 O1P        -0.6673   -8.8878    2.8560 O.co2       1 ACE      -0.6653
     18 O2P        -2.3967   -8.6984    4.3947 O.co2       1 ACE      -0.6653
     19 O3P        -1.9329   -6.9277    2.9632 O.co2       1 ACE      -0.6653
     20 O          10.7100   -9.0135    2.3958 O.2         1 ACE      -0.3419
     21 CD         12.6317   -7.9281    5.5829 C.3         1 ACE      -0.0532
     22 CG         11.9949   -9.2728    5.1562 C.3         1 ACE      -0.0516
     23 CE         12.1390   -6.7720    4.6787 C.3         1 ACE      -0.0516
     24 CB         10.4434   -9.1806    5.1137 C.3         1 ACE      -0.0199
     25 CH         10.5876   -6.6597    4.6824 C.3         1 ACE      -0.0199
     26 N           8.4408   -7.9764    4.7178 N.am        1 ACE      -0.2738
     27 C           9.9060   -8.2019    2.8259 C.2         1 ACE       0.2267
     28 CA          9.8297   -7.9802    4.2866 C.3         1 ACE       0.1331
     29 N           9.1868   -7.4867    1.9610 N.am        1 ACE      -0.2608
     30 CA          9.1413   -7.4909    0.5180 C.3         1 ACE       0.1474
     31 C           9.9728   -8.4597   -0.2047 C.2         1 ACE       0.2017
     32 O          10.7562   -8.1444   -1.0815 O.2         1 ACE      -0.3945
     33 CB          9.2892   -6.0167    0.0108 C.3         1 ACE       0.0774
     34 CG         10.5860   -5.3743    0.1617 C.2         1 ACE       0.1781
     35 OD1        11.5816   -5.9772    0.5459 O.2         1 ACE      -0.3970
     36 ND2        10.7332   -4.1049   -0.1400 N.am        1 ACE      -0.3007
     37 N           9.8464   -9.7502    0.0316 N.am        1 ACE      -0.2988
     38 H1          4.7736   -4.5767    7.7062 H           1 ACE       0.0467
     39 H2          5.8861   -5.1279    8.9760 H           1 ACE       0.0467
     40 H3          4.2518   -5.8206    8.8626 H           1 ACE       0.0467
     41 H4          5.4712   -5.4405    5.7757 H           1 ACE       0.1885
     42 H5          6.1524   -8.2839    5.6147 H           1 ACE       0.0840
     43 H6          5.4228   -8.3344    3.4110 H           1 ACE       0.0584
     44 H7          5.4862   -6.6000    3.1937 H           1 ACE       0.0584
     45 H8          3.2778   -5.9088    2.6399 H           1 ACE       0.0703
     46 H9          3.7426   -8.7300    5.7614 H           1 ACE       0.0703
     47 H10         0.9041   -5.8966    3.0191 H           1 ACE       0.0736
     48 H11         1.3705   -8.6693    6.1460 H           1 ACE       0.0736
     49 H12        13.7220   -7.9991    5.5166 H           1 ACE       0.0265
     50 H13        12.3713   -7.7123    6.6210 H           1 ACE       0.0265
     51 H14        12.2941  -10.0509    5.8634 H           1 ACE       0.0265
     52 H15        12.3980   -9.5643    4.1807 H           1 ACE       0.0265
     53 H16        12.4981   -6.9238    3.6563 H           1 ACE       0.0265
     54 H17        12.5660   -5.8311    5.0404 H           1 ACE       0.0265
     55 H18        10.1236   -9.1037    6.1593 H           1 ACE       0.0277
     56 H19        10.0597  -10.1327    4.7303 H           1 ACE       0.0277
     57 H20        10.3158   -5.8476    4.0054 H           1 ACE       0.0277
     58 H21        10.2838   -6.3610    5.6884 H           1 ACE       0.0277
     59 H22         8.1094   -8.8445    5.0083 H           1 ACE       0.1839
     60 H23         8.6067   -6.8230    2.3593 H           1 ACE       0.1891
     61 H24         8.1118   -7.7748    0.2811 H           1 ACE       0.0828
     62 H25         8.5550   -5.3984    0.5363 H           1 ACE       0.0551
     63 H26         9.0206   -5.9883   -1.0513 H           1 ACE       0.0551
     64 H27        11.5974   -3.6757   -0.0357 H           1 ACE       0.1814
     65 H28         9.9799   -3.5930   -0.4782 H           1 ACE       0.1814
     66 H29        10.3771  -10.3921   -0.4681 H           1 ACE       0.1815
     67 H30         9.2281  -10.0536    0.7106 H           1 ACE       0.1815
@<TRIPOS>BOND
     1     1     2   2
     2     1     3   1
     3     4     1  am
     4     5     4   1
     5     6     5   1
     6     5     8   1
     7     6     7   2
     8    26     6  am
     9     8     9   1
    10     9    10  ar
    11     9    11  ar
    12    10    12  ar
    13    11    13  ar
    14    12    14  ar
    15    13    14  ar
    16    14    15   1
    17    15    16   1
    18    16    17  ar
    19    16    18  ar
    20    16    19  ar
    21    27    20   2
    22    22    21   1
    23    23    21   1
    24    24    22   1
    25    25    23   1
    26    28    24   1
    27    28    25   1
    28    28    26   1
    29    27    28   1
    30    27    29  am
    31    29    30   1
    32    30    31   1
    33    30    33   1
    34    31    32   2
    35    31    37  am
    36    33    34   1
    37    34    35   2
    38    34    36  am
    39     3    38   1
    40     3    39   1
    41     3    40   1
    42     4    41   1
    43     5    42   1
    44     8    43   1
    45     8    44   1
    46    10    45   1
    47    11    46   1
    48    12    47   1
    49    13    48   1
    50    21    49   1
    51    21    50   1
    52    22    51   1
    53    22    52   1
    54    23    53   1
    55    23    54   1
    56    24    55   1
    57    24    56   1
    58    25    57   1
    59    25    58   1
    60    26    59   1
    61    29    60   1
    62    30    61   1
    63    33    62   1
    64    33    63   1
    65    36    64   1
    66    36    65   1
    67    37    66   1
    68    37    67   1
@<TRIPOS>SUBSTRUCTURE
     1  ACE      1

