@<TRIPOS>MOLECULE
3s8o_ligand_047
    67    68
SMALL
GAST_HUCK
****
This file was generated by PARSER (from files_GN.cpp)

@<TRIPOS>ATOM
      1 C          10.7435   -5.5747   -0.6855 C.2         1 ACE       0.1753
      2 O          10.2809   -5.1674   -1.7403 O.2         1 ACE      -0.3972
      3 CH3        12.0833   -5.1717   -0.3301 C.3         1 ACE       0.0258
      4 N          10.0457   -6.3601    0.1312 N.am        1 ACE      -0.2628
      5 CA          8.7194   -6.8766   -0.0763 C.3         1 ACE       0.1465
      6 C           7.8179   -6.3081    0.9304 C.2         1 ACE       0.2045
      7 O           6.8557   -5.6598    0.5442 O.2         1 ACE      -0.3944
      8 CB          8.7364   -8.4371   -0.0605 C.3         1 ACE       0.0400
      9 CG          9.5801   -9.1422   -1.0773 C.ar        1 ACE      -0.0004
     10 CD1         9.9006   -8.5878   -2.3388 C.ar        1 ACE      -0.0239
     11 CD2        10.0262  -10.4635   -0.8072 C.ar        1 ACE      -0.0239
     12 CE1        10.6675   -9.3046   -3.2771 C.ar        1 ACE       0.0115
     13 CE2        10.7769  -11.1891   -1.7523 C.ar        1 ACE       0.0115
     14 CZ         11.0874  -10.6239   -3.0057 C.ar        1 ACE       0.1728
     15 OH         11.8628  -11.3490   -3.8761 O.3         1 ACE      -0.2040
     16 P          11.1821  -11.7421   -5.2237 P.3         1 ACE       0.1348
     17 O1P        11.9717  -12.7561   -5.8630 O.co2       1 ACE      -0.6653
     18 O2P         9.8391  -12.2522   -5.0787 O.co2       1 ACE      -0.6653
     19 O3P        11.1557  -10.6208   -6.1305 O.co2       1 ACE      -0.6653
     20 O           7.1183   -7.6620    4.7562 O.2         1 ACE      -0.3419
     21 CD          7.6581   -3.3249    5.2319 C.3         1 ACE      -0.0532
     22 CG          6.4303   -3.5743    4.3241 C.3         1 ACE      -0.0516
     23 CE          8.3842   -4.6507    5.5720 C.3         1 ACE      -0.0516
     24 CB          6.7893   -4.4248    3.0706 C.3         1 ACE      -0.0199
     25 CH          8.7413   -5.4397    4.2872 C.3         1 ACE      -0.0199
     26 N           8.0765   -6.4578    2.2296 N.am        1 ACE      -0.2738
     27 C           6.6159   -6.7927    4.0574 C.2         1 ACE       0.2267
     28 CA          7.4935   -5.8038    3.3905 C.3         1 ACE       0.1331
     29 N           5.3003   -6.8270    3.8468 N.am        1 ACE      -0.2608
     30 CA          4.3132   -7.6747    4.4754 C.3         1 ACE       0.1474
     31 C           4.2742   -7.4530    5.9315 C.2         1 ACE       0.2017
     32 O           4.1306   -8.3471    6.7537 O.2         1 ACE      -0.3945
     33 CB          4.3064   -9.1819    4.0085 C.3         1 ACE       0.0774
     34 CG          5.3128   -9.5863    3.0430 C.2         1 ACE       0.1781
     35 OD1         6.0910  -10.4971    3.2872 O.2         1 ACE      -0.3970
     36 ND2         5.3898   -9.0401    1.8499 N.am        1 ACE      -0.3007
     37 N           4.3584   -6.2399    6.4382 N.am        1 ACE      -0.2988
     38 H1         12.4031   -5.6080    0.6191 H           1 ACE       0.0467
     39 H2         12.1290   -4.0835   -0.2435 H           1 ACE       0.0467
     40 H3         12.7786   -5.4956   -1.1078 H           1 ACE       0.0467
     41 H4         10.4787   -6.6053    0.9638 H           1 ACE       0.1885
     42 H5          8.3409   -6.5768   -1.0624 H           1 ACE       0.0840
     43 H6          7.7129   -8.7900   -0.2109 H           1 ACE       0.0584
     44 H7          9.0435   -8.7556    0.9413 H           1 ACE       0.0584
     45 H8          9.5848   -7.6534   -2.6022 H           1 ACE       0.0703
     46 H9          9.8025  -10.9070    0.0826 H           1 ACE       0.0703
     47 H10        10.9043   -8.8683   -4.1713 H           1 ACE       0.0736
     48 H11        11.0916  -12.1341   -1.5250 H           1 ACE       0.0736
     49 H12         7.3328   -2.8376    6.1545 H           1 ACE       0.0265
     50 H13         8.3545   -2.6490    4.7230 H           1 ACE       0.0265
     51 H14         6.0264   -2.6095    3.9997 H           1 ACE       0.0265
     52 H15         5.6501   -4.0877    4.8946 H           1 ACE       0.0265
     53 H16         7.7399   -5.2569    6.2140 H           1 ACE       0.0265
     54 H17         9.2958   -4.4216    6.1280 H           1 ACE       0.0265
     55 H18         7.4518   -3.8239    2.4361 H           1 ACE       0.0277
     56 H19         5.8634   -4.5687    2.5067 H           1 ACE       0.0277
     57 H20         9.2896   -6.3415    4.5799 H           1 ACE       0.0277
     58 H21         9.4402   -4.8270    3.7039 H           1 ACE       0.0277
     59 H22         8.8195   -7.0480    2.4306 H           1 ACE       0.1839
     60 H23         4.9469   -6.1593    3.2495 H           1 ACE       0.1891
     61 H24         3.3606   -7.2581    4.1257 H           1 ACE       0.0828
     62 H25         3.3398   -9.4081    3.5448 H           1 ACE       0.0551
     63 H26         4.3857   -9.8549    4.8670 H           1 ACE       0.0551
     64 H27         6.0579   -9.3623    1.2174 H           1 ACE       0.1814
     65 H28         4.8035   -8.3036    1.5973 H           1 ACE       0.1814
     66 H29         4.3175   -6.1185    7.4023 H           1 ACE       0.1815
     67 H30         4.4572   -5.4635    5.8608 H           1 ACE       0.1815
@<TRIPOS>BOND
     1     1     2   2
     2     1     3   1
     3     4     1  am
     4     5     4   1
     5     6     5   1
     6     5     8   1
     7     6     7   2
     8    26     6  am
     9     8     9   1
    10     9    10  ar
    11     9    11  ar
    12    10    12  ar
    13    11    13  ar
    14    12    14  ar
    15    13    14  ar
    16    14    15   1
    17    15    16   1
    18    16    17  ar
    19    16    18  ar
    20    16    19  ar
    21    27    20   2
    22    22    21   1
    23    23    21   1
    24    24    22   1
    25    25    23   1
    26    28    24   1
    27    28    25   1
    28    28    26   1
    29    27    28   1
    30    27    29  am
    31    29    30   1
    32    30    31   1
    33    30    33   1
    34    31    32   2
    35    31    37  am
    36    33    34   1
    37    34    35   2
    38    34    36  am
    39     3    38   1
    40     3    39   1
    41     3    40   1
    42     4    41   1
    43     5    42   1
    44     8    43   1
    45     8    44   1
    46    10    45   1
    47    11    46   1
    48    12    47   1
    49    13    48   1
    50    21    49   1
    51    21    50   1
    52    22    51   1
    53    22    52   1
    54    23    53   1
    55    23    54   1
    56    24    55   1
    57    24    56   1
    58    25    57   1
    59    25    58   1
    60    26    59   1
    61    29    60   1
    62    30    61   1
    63    33    62   1
    64    33    63   1
    65    36    64   1
    66    36    65   1
    67    37    66   1
    68    37    67   1
@<TRIPOS>SUBSTRUCTURE
     1  ACE      1

