@<TRIPOS>MOLECULE
3s8o_ligand_050
    67    68
SMALL
GAST_HUCK
****
This file was generated by PARSER (from files_GN.cpp)

@<TRIPOS>ATOM
      1 C          10.7295   -7.0567    0.0515 C.2         1 ACE       0.1753
      2 O          11.0969   -8.1517    0.4583 O.2         1 ACE      -0.3972
      3 CH3        11.7335   -6.0611   -0.2579 C.3         1 ACE       0.0258
      4 N           9.4464   -6.7759   -0.1354 N.am        1 ACE      -0.2628
      5 CA          8.2947   -7.6227    0.0437 C.3         1 ACE       0.1465
      6 C           8.0944   -7.9706    1.4491 C.2         1 ACE       0.2045
      7 O           8.7990   -8.8560    1.9144 O.2         1 ACE      -0.3944
      8 CB          8.2718   -8.8772   -0.8923 C.3         1 ACE       0.0400
      9 CG          8.7020   -8.6124   -2.2931 C.ar        1 ACE      -0.0004
     10 CD1         7.9077   -7.8287   -3.1617 C.ar        1 ACE      -0.0239
     11 CD2         9.9127   -9.1536   -2.7873 C.ar        1 ACE      -0.0239
     12 CE1         8.3105   -7.6027   -4.4910 C.ar        1 ACE       0.0115
     13 CE2        10.3232   -8.9135   -4.1101 C.ar        1 ACE       0.0115
     14 CZ          9.5122   -8.1552   -4.9808 C.ar        1 ACE       0.1728
     15 OH          9.9021   -7.8735   -6.2642 O.3         1 ACE      -0.2040
     16 P           9.6056   -9.0135   -7.2865 P.3         1 ACE       0.1348
     17 O1P         9.8273   -8.4895   -8.6103 O.co2       1 ACE      -0.6653
     18 O2P        10.5268  -10.1086   -7.1269 O.co2       1 ACE      -0.6653
     19 O3P         8.2529   -9.5060   -7.2437 O.co2       1 ACE      -0.6653
     20 O           7.7796   -5.8746    5.1044 O.2         1 ACE      -0.3419
     21 CD          4.1836   -8.9379    3.5054 C.3         1 ACE      -0.0532
     22 CG          5.5317   -9.6651    3.2909 C.3         1 ACE      -0.0516
     23 CE          4.2870   -7.4297    3.1555 C.3         1 ACE      -0.0516
     24 CB          6.6756   -8.9569    4.0625 C.3         1 ACE      -0.0199
     25 CH          5.5016   -6.7409    3.8448 C.3         1 ACE      -0.0199
     26 N           7.1897   -7.3320    2.1910 N.am        1 ACE      -0.2738
     27 C           7.9791   -6.8521    4.3914 C.2         1 ACE       0.2267
     28 CA          6.8842   -7.4677    3.6065 C.3         1 ACE       0.1331
     29 N           9.2095   -7.3462    4.3047 N.am        1 ACE      -0.2608
     30 CA         10.4133   -6.9209    4.9566 C.3         1 ACE       0.1474
     31 C          11.1795   -6.0845    4.0374 C.2         1 ACE       0.2017
     32 O          10.8192   -4.9324    3.8373 O.2         1 ACE      -0.3945
     33 CB         11.1629   -8.1610    5.5471 C.3         1 ACE       0.0774
     34 CG         11.5397   -9.2491    4.6498 C.2         1 ACE       0.1781
     35 OD1        11.1844   -9.3054    3.4817 O.2         1 ACE      -0.3970
     36 ND2        12.3153  -10.2219    5.0721 N.am        1 ACE      -0.3007
     37 N          12.2736   -6.4653    3.4141 N.am        1 ACE      -0.2988
     38 H1         11.2995   -5.1452   -0.6683 H           1 ACE       0.0467
     39 H2         12.4363   -6.4625   -0.9899 H           1 ACE       0.0467
     40 H3         12.2776   -5.7957    0.6471 H           1 ACE       0.0467
     41 H4          9.2566   -5.8816   -0.4667 H           1 ACE       0.1885
     42 H5          7.4544   -6.9940   -0.2683 H           1 ACE       0.0840
     43 H6          7.2572   -9.2844   -0.9121 H           1 ACE       0.0584
     44 H7          8.9071   -9.6575   -0.4638 H           1 ACE       0.0584
     45 H8          7.0212   -7.4349   -2.8378 H           1 ACE       0.0703
     46 H9         10.5065   -9.7307   -2.1866 H           1 ACE       0.0703
     47 H10         7.7200   -7.0424   -5.1094 H           1 ACE       0.0736
     48 H11        11.2062   -9.3085   -4.4420 H           1 ACE       0.0736
     49 H12         3.8748   -9.0529    4.5484 H           1 ACE       0.0265
     50 H13         3.4189   -9.4040    2.8776 H           1 ACE       0.0265
     51 H14         5.7577   -9.6832    2.2225 H           1 ACE       0.0265
     52 H15         5.4454  -10.6987    3.6308 H           1 ACE       0.0265
     53 H16         3.3619   -6.9309    3.4630 H           1 ACE       0.0265
     54 H17         4.3769   -7.3131    2.0725 H           1 ACE       0.0265
     55 H18         7.5841   -9.5452    3.9357 H           1 ACE       0.0277
     56 H19         6.4400   -8.9715    5.1320 H           1 ACE       0.0277
     57 H20         5.2872   -6.6996    4.9184 H           1 ACE       0.0277
     58 H21         5.5537   -5.7056    3.4924 H           1 ACE       0.0277
     59 H22         6.6683   -6.6654    1.7157 H           1 ACE       0.1839
     60 H23         9.3186   -8.0989    3.7136 H           1 ACE       0.1891
     61 H24        10.1669   -6.2906    5.8176 H           1 ACE       0.0828
     62 H25        10.5331   -8.5943    6.3300 H           1 ACE       0.0551
     63 H26        12.0704   -7.7896    6.0327 H           1 ACE       0.0551
     64 H27        12.5672  -10.9383    4.4676 H           1 ACE       0.1814
     65 H28        12.6636  -10.2138    5.9765 H           1 ACE       0.1814
     66 H29        12.7314   -5.8418    2.8296 H           1 ACE       0.1815
     67 H30        12.6232   -7.3636    3.5196 H           1 ACE       0.1815
@<TRIPOS>BOND
     1     1     2   2
     2     1     3   1
     3     4     1  am
     4     5     4   1
     5     6     5   1
     6     5     8   1
     7     6     7   2
     8    26     6  am
     9     8     9   1
    10     9    10  ar
    11     9    11  ar
    12    10    12  ar
    13    11    13  ar
    14    12    14  ar
    15    13    14  ar
    16    14    15   1
    17    15    16   1
    18    16    17  ar
    19    16    18  ar
    20    16    19  ar
    21    27    20   2
    22    22    21   1
    23    23    21   1
    24    24    22   1
    25    25    23   1
    26    28    24   1
    27    28    25   1
    28    28    26   1
    29    27    28   1
    30    27    29  am
    31    29    30   1
    32    30    31   1
    33    30    33   1
    34    31    32   2
    35    31    37  am
    36    33    34   1
    37    34    35   2
    38    34    36  am
    39     3    38   1
    40     3    39   1
    41     3    40   1
    42     4    41   1
    43     5    42   1
    44     8    43   1
    45     8    44   1
    46    10    45   1
    47    11    46   1
    48    12    47   1
    49    13    48   1
    50    21    49   1
    51    21    50   1
    52    22    51   1
    53    22    52   1
    54    23    53   1
    55    23    54   1
    56    24    55   1
    57    24    56   1
    58    25    57   1
    59    25    58   1
    60    26    59   1
    61    29    60   1
    62    30    61   1
    63    33    62   1
    64    33    63   1
    65    36    64   1
    66    36    65   1
    67    37    66   1
    68    37    67   1
@<TRIPOS>SUBSTRUCTURE
     1  ACE      1

