@<TRIPOS>MOLECULE
3s8o_ligand_005
    67    68
SMALL
GAST_HUCK
****
This file was generated by PARSER (from files_GN.cpp)

@<TRIPOS>ATOM
      1 C           6.8887   -7.4057   -2.1701 C.2         1 ACE       0.1753
      2 O           7.2250   -8.5018   -2.5999 O.2         1 ACE      -0.3972
      3 CH3         5.8633   -6.6864   -2.8855 C.3         1 ACE       0.0258
      4 N           7.4351   -6.8741   -1.0817 N.am        1 ACE      -0.2628
      5 CA          8.3943   -7.4959   -0.2106 C.3         1 ACE       0.1465
      6 C           8.0453   -7.1115    1.1603 C.2         1 ACE       0.2045
      7 O           8.2185   -5.9486    1.5066 O.2         1 ACE      -0.3944
      8 CB          9.8688   -7.2166   -0.6853 C.3         1 ACE       0.0400
      9 CG         10.5677   -6.0667   -0.0478 C.ar        1 ACE      -0.0004
     10 CD1        10.2980   -4.7223   -0.4003 C.ar        1 ACE      -0.0239
     11 CD2        11.3885   -6.3047    1.0749 C.ar        1 ACE      -0.0239
     12 CE1        10.8331   -3.6560    0.3590 C.ar        1 ACE       0.0115
     13 CE2        11.8742   -5.2513    1.8584 C.ar        1 ACE       0.0115
     14 CZ         11.6249   -3.9125    1.5022 C.ar        1 ACE       0.1728
     15 OH         11.9939   -2.9084    2.3577 O.3         1 ACE      -0.2040
     16 P          13.5146   -2.5862    2.4142 P.3         1 ACE       0.1348
     17 O1P        13.8768   -1.6065    1.4140 O.co2       1 ACE      -0.6653
     18 O2P        13.7822   -1.9678    3.6942 O.co2       1 ACE      -0.6653
     19 O3P        14.3935   -3.7204    2.3256 O.co2       1 ACE      -0.6653
     20 O           8.1529   -6.4937    4.8713 O.2         1 ACE      -0.3419
     21 CD          4.3008   -7.6846    4.9735 C.3         1 ACE      -0.0532
     22 CG          5.2950   -8.8682    5.0456 C.3         1 ACE      -0.0516
     23 CE          5.0186   -6.3705    4.5911 C.3         1 ACE      -0.0516
     24 CB          6.1089   -9.0152    3.7290 C.3         1 ACE      -0.0199
     25 CH          5.8676   -6.5257    3.2972 C.3         1 ACE      -0.0199
     26 N           7.4029   -7.9546    1.9688 N.am        1 ACE      -0.2738
     27 C           8.0667   -7.5201    4.2055 C.2         1 ACE       0.2267
     28 CA          6.9017   -7.7239    3.3162 C.3         1 ACE       0.1331
     29 N           9.0585   -8.4132    4.2535 N.am        1 ACE      -0.2608
     30 CA         10.3024   -8.3164    4.9891 C.3         1 ACE       0.1474
     31 C          11.4150   -8.2619    4.0497 C.2         1 ACE       0.2017
     32 O          11.4925   -9.0697    3.1338 O.2         1 ACE      -0.3945
     33 CB         10.4348   -9.4351    6.0840 C.3         1 ACE       0.0774
     34 CG         11.2065  -10.6320    5.7627 C.2         1 ACE       0.1781
     35 OD1        10.7373  -11.7486    5.9213 O.2         1 ACE      -0.3970
     36 ND2        12.4690  -10.5529    5.3931 N.am        1 ACE      -0.3007
     37 N          12.4738   -7.5166    4.2830 N.am        1 ACE      -0.2988
     38 H1          5.6111   -5.7429   -2.3966 H           1 ACE       0.0467
     39 H2          4.9580   -7.2943   -2.9411 H           1 ACE       0.0467
     40 H3          6.2081   -6.4709   -3.8978 H           1 ACE       0.0467
     41 H4          7.1126   -5.9962   -0.8213 H           1 ACE       0.1885
     42 H5          8.2576   -8.5814   -0.2847 H           1 ACE       0.0840
     43 H6          9.8922   -7.0865   -1.7711 H           1 ACE       0.0584
     44 H7         10.4533   -8.1211   -0.4987 H           1 ACE       0.0584
     45 H8          9.6760   -4.5121   -1.1867 H           1 ACE       0.0703
     46 H9         11.5898   -7.2592    1.3625 H           1 ACE       0.0703
     47 H10        10.6037   -2.6915    0.1054 H           1 ACE       0.0736
     48 H11        12.3851   -5.4549    2.7163 H           1 ACE       0.0736
     49 H12         3.8076   -7.5558    5.9432 H           1 ACE       0.0265
     50 H13         3.5254   -7.9006    4.2322 H           1 ACE       0.0265
     51 H14         4.7279   -9.7835    5.2257 H           1 ACE       0.0265
     52 H15         5.9749   -8.7198    5.8888 H           1 ACE       0.0265
     53 H16         5.6570   -6.0545    5.4191 H           1 ACE       0.0265
     54 H17         4.2719   -5.5849    4.4384 H           1 ACE       0.0265
     55 H18         5.4058   -9.2766    2.9339 H           1 ACE       0.0277
     56 H19         6.7867   -9.8665    3.8369 H           1 ACE       0.0277
     57 H20         6.3766   -5.5765    3.1354 H           1 ACE       0.0277
     58 H21         5.1761   -6.6633    2.4568 H           1 ACE       0.0277
     59 H22         7.2467   -8.8432    1.6079 H           1 ACE       0.1839
     60 H23         8.9558   -9.2053    3.7019 H           1 ACE       0.1891
     61 H24        10.3074   -7.3703    5.5432 H           1 ACE       0.0828
     62 H25         9.4262   -9.7337    6.3922 H           1 ACE       0.0551
     63 H26        10.9037   -8.9954    6.9682 H           1 ACE       0.0551
     64 H27        12.9713  -11.3543    5.1803 H           1 ACE       0.1814
     65 H28        12.8981   -9.6881    5.3045 H           1 ACE       0.1814
     66 H29        13.2347   -7.5503    3.6808 H           1 ACE       0.1815
     67 H30        12.4864   -6.8983    5.0316 H           1 ACE       0.1815
@<TRIPOS>BOND
     1     1     2   2
     2     1     3   1
     3     4     1  am
     4     5     4   1
     5     6     5   1
     6     5     8   1
     7     6     7   2
     8    26     6  am
     9     8     9   1
    10     9    10  ar
    11     9    11  ar
    12    10    12  ar
    13    11    13  ar
    14    12    14  ar
    15    13    14  ar
    16    14    15   1
    17    15    16   1
    18    16    17  ar
    19    16    18  ar
    20    16    19  ar
    21    27    20   2
    22    22    21   1
    23    23    21   1
    24    24    22   1
    25    25    23   1
    26    28    24   1
    27    28    25   1
    28    28    26   1
    29    27    28   1
    30    27    29  am
    31    29    30   1
    32    30    31   1
    33    30    33   1
    34    31    32   2
    35    31    37  am
    36    33    34   1
    37    34    35   2
    38    34    36  am
    39     3    38   1
    40     3    39   1
    41     3    40   1
    42     4    41   1
    43     5    42   1
    44     8    43   1
    45     8    44   1
    46    10    45   1
    47    11    46   1
    48    12    47   1
    49    13    48   1
    50    21    49   1
    51    21    50   1
    52    22    51   1
    53    22    52   1
    54    23    53   1
    55    23    54   1
    56    24    55   1
    57    24    56   1
    58    25    57   1
    59    25    58   1
    60    26    59   1
    61    29    60   1
    62    30    61   1
    63    33    62   1
    64    33    63   1
    65    36    64   1
    66    36    65   1
    67    37    66   1
    68    37    67   1
@<TRIPOS>SUBSTRUCTURE
     1  ACE      1

