@<TRIPOS>MOLECULE
3s8o_ligand_037
    67    68
SMALL
GAST_HUCK
****
This file was generated by PARSER (from files_GN.cpp)

@<TRIPOS>ATOM
      1 C          11.2922   -8.8484    4.1265 C.2         1 ACE       0.1753
      2 O          11.3937   -7.7103    3.6756 O.2         1 ACE      -0.3972
      3 CH3        12.4418   -9.4746    4.7195 C.3         1 ACE       0.0258
      4 N          10.1656   -9.5408    3.9620 N.am        1 ACE      -0.2628
      5 CA          8.9588   -9.1183    3.2979 C.3         1 ACE       0.1465
      6 C           9.1748   -8.8207    1.8720 C.2         1 ACE       0.2045
      7 O          10.1672   -9.3065    1.3468 O.2         1 ACE      -0.3944
      8 CB          8.2148   -8.0060    4.1329 C.3         1 ACE       0.0400
      9 CG          6.7311   -8.0675    4.3396 C.ar        1 ACE      -0.0004
     10 CD1         6.1560   -7.1792    5.2839 C.ar        1 ACE      -0.0239
     11 CD2         5.8617   -8.9883    3.6957 C.ar        1 ACE      -0.0239
     12 CE1         4.7903   -7.2457    5.6142 C.ar        1 ACE       0.0115
     13 CE2         4.4998   -9.0646    4.0374 C.ar        1 ACE       0.0115
     14 CZ          3.9482   -8.1885    4.9905 C.ar        1 ACE       0.1728
     15 OH          2.6462   -8.3070    5.4150 O.3         1 ACE      -0.2040
     16 P           1.5951   -7.5543    4.5488 P.3         1 ACE       0.1348
     17 O1P         0.3725   -7.4584    5.3143 O.co2       1 ACE      -0.6653
     18 O2P         1.9689   -6.1955    4.2283 O.co2       1 ACE      -0.6653
     19 O3P         1.2754   -8.2786    3.3394 O.co2       1 ACE      -0.6653
     20 O           7.2373   -5.7146   -0.6425 O.2         1 ACE      -0.3419
     21 CD         10.2988   -9.1907   -2.1990 C.3         1 ACE      -0.0532
     22 CG          9.1693  -10.0045   -1.5242 C.3         1 ACE      -0.0516
     23 CE         10.7542   -7.9990   -1.3235 C.3         1 ACE      -0.0516
     24 CB          7.9616   -9.1035   -1.1626 C.3         1 ACE      -0.0199
     25 CH          9.5653   -7.1141   -0.8493 C.3         1 ACE      -0.0199
     26 N           8.3059   -8.1278    1.1378 N.am        1 ACE      -0.2738
     27 C           7.0926   -6.9127   -0.4070 C.2         1 ACE       0.2267
     28 CA          8.2618   -7.8230   -0.2893 C.3         1 ACE       0.1331
     29 N           5.8551   -7.3787   -0.2520 N.am        1 ACE      -0.2608
     30 CA          4.6169   -6.7425   -0.6205 C.3         1 ACE       0.1474
     31 C           3.8630   -6.3812    0.5679 C.2         1 ACE       0.2017
     32 O           3.4794   -5.2344    0.7470 O.2         1 ACE      -0.3945
     33 CB          3.8212   -7.6350   -1.6298 C.3         1 ACE       0.0774
     34 CG          3.3947   -8.9558   -1.1853 C.2         1 ACE       0.1781
     35 OD1         4.1795   -9.7012   -0.6182 O.2         1 ACE      -0.3970
     36 ND2         2.2176   -9.4562   -1.5078 N.am        1 ACE      -0.3007
     37 N           3.6206   -7.2426    1.5286 N.am        1 ACE      -0.2988
     38 H1         12.1854  -10.4337    5.1763 H           1 ACE       0.0467
     39 H2         12.8665   -8.8346    5.4948 H           1 ACE       0.0467
     40 H3         13.2050   -9.6557    3.9593 H           1 ACE       0.0467
     41 H4         10.1833  -10.4500    4.2944 H           1 ACE       0.1885
     42 H5          8.3529  -10.0233    3.3177 H           1 ACE       0.0840
     43 H6          8.4658   -7.0244    3.7156 H           1 ACE       0.0584
     44 H7          8.6477   -8.0236    5.1382 H           1 ACE       0.0584
     45 H8          6.7417   -6.4924    5.7694 H           1 ACE       0.0703
     46 H9          6.2062   -9.6240    2.9799 H           1 ACE       0.0703
     47 H10         4.4085   -6.6124    6.3216 H           1 ACE       0.0736
     48 H11         3.9062   -9.7616    3.5833 H           1 ACE       0.0736
     49 H12         9.9483   -8.8133   -3.1658 H           1 ACE       0.0265
     50 H13        11.1555   -9.8456   -2.3923 H           1 ACE       0.0265
     51 H14         9.5518  -10.5160   -0.6406 H           1 ACE       0.0265
     52 H15         8.8384  -10.7764   -2.2278 H           1 ACE       0.0265
     53 H16        11.4357   -7.3790   -1.9124 H           1 ACE       0.0265
     54 H17        11.3392   -8.3636   -0.4826 H           1 ACE       0.0265
     55 H18         7.2181   -9.7281   -0.6624 H           1 ACE       0.0277
     56 H19         7.5158   -8.7902   -2.1144 H           1 ACE       0.0277
     57 H20         9.2992   -6.5327   -1.7395 H           1 ACE       0.0277
     58 H21         9.9357   -6.4024   -0.1035 H           1 ACE       0.0277
     59 H22         7.5537   -7.7729    1.6451 H           1 ACE       0.1839
     60 H23         5.7834   -8.2903    0.0710 H           1 ACE       0.1891
     61 H24         4.8296   -5.8171   -1.1700 H           1 ACE       0.0828
     62 H25         4.4514   -7.7829   -2.5120 H           1 ACE       0.0551
     63 H26         2.9473   -7.0675   -1.9650 H           1 ACE       0.0551
     64 H27         1.9964  -10.3737   -1.2701 H           1 ACE       0.1814
     65 H28         1.5870   -8.9319   -2.0279 H           1 ACE       0.1814
     66 H29         3.1630   -6.9467    2.3274 H           1 ACE       0.1815
     67 H30         3.9330   -8.1576    1.4615 H           1 ACE       0.1815
@<TRIPOS>BOND
     1     1     2   2
     2     1     3   1
     3     4     1  am
     4     5     4   1
     5     6     5   1
     6     5     8   1
     7     6     7   2
     8    26     6  am
     9     8     9   1
    10     9    10  ar
    11     9    11  ar
    12    10    12  ar
    13    11    13  ar
    14    12    14  ar
    15    13    14  ar
    16    14    15   1
    17    15    16   1
    18    16    17  ar
    19    16    18  ar
    20    16    19  ar
    21    27    20   2
    22    22    21   1
    23    23    21   1
    24    24    22   1
    25    25    23   1
    26    28    24   1
    27    28    25   1
    28    28    26   1
    29    27    28   1
    30    27    29  am
    31    29    30   1
    32    30    31   1
    33    30    33   1
    34    31    32   2
    35    31    37  am
    36    33    34   1
    37    34    35   2
    38    34    36  am
    39     3    38   1
    40     3    39   1
    41     3    40   1
    42     4    41   1
    43     5    42   1
    44     8    43   1
    45     8    44   1
    46    10    45   1
    47    11    46   1
    48    12    47   1
    49    13    48   1
    50    21    49   1
    51    21    50   1
    52    22    51   1
    53    22    52   1
    54    23    53   1
    55    23    54   1
    56    24    55   1
    57    24    56   1
    58    25    57   1
    59    25    58   1
    60    26    59   1
    61    29    60   1
    62    30    61   1
    63    33    62   1
    64    33    63   1
    65    36    64   1
    66    36    65   1
    67    37    66   1
    68    37    67   1
@<TRIPOS>SUBSTRUCTURE
     1  ACE      1

