@<TRIPOS>MOLECULE
3s8o_ligand_020
    67    68
SMALL
GAST_HUCK
****
This file was generated by PARSER (from files_GN.cpp)

@<TRIPOS>ATOM
      1 C          -0.4098   -9.1930    0.8233 C.2         1 ACE       0.1753
      2 O          -0.3567   -8.3590   -0.0734 O.2         1 ACE      -0.3972
      3 CH3        -0.1434  -10.5720    0.4933 C.3         1 ACE       0.0258
      4 N          -0.5164   -8.8328    2.0940 N.am        1 ACE      -0.2628
      5 CA         -0.4751   -7.4801    2.5866 C.3         1 ACE       0.1465
      6 C           0.8931   -6.9702    2.4840 C.2         1 ACE       0.2045
      7 O           1.0510   -5.8210    2.0709 O.2         1 ACE      -0.3944
      8 CB         -1.0159   -7.4437    4.0493 C.3         1 ACE       0.0400
      9 CG         -2.4738   -7.7615    4.0983 C.ar        1 ACE      -0.0004
     10 CD1        -2.9293   -9.0991    4.1595 C.ar        1 ACE      -0.0239
     11 CD2        -3.4322   -6.7320    3.9694 C.ar        1 ACE      -0.0239
     12 CE1        -4.3058   -9.3935    4.1094 C.ar        1 ACE       0.0115
     13 CE2        -4.8084   -7.0253    3.9300 C.ar        1 ACE       0.0115
     14 CZ         -5.2561   -8.3581    4.0233 C.ar        1 ACE       0.1728
     15 OH         -6.5891   -8.6449    3.9061 O.3         1 ACE      -0.2040
     16 P          -7.3153   -8.7908    5.2748 P.3         1 ACE       0.1348
     17 O1P        -7.3302   -7.5645    6.0375 O.co2       1 ACE      -0.6653
     18 O2P        -8.6907   -9.1186    4.9831 O.co2       1 ACE      -0.6653
     19 O3P        -6.7890   -9.8622    6.0756 O.co2       1 ACE      -0.6653
     20 O           4.1684   -6.6996    0.5089 O.2         1 ACE      -0.3419
     21 CD          4.1227   -7.0684    5.4916 C.3         1 ACE      -0.0532
     22 CG          3.7919   -8.4801    4.9521 C.3         1 ACE      -0.0516
     23 CE          3.4331   -5.9637    4.6551 C.3         1 ACE      -0.0516
     24 CB          4.0806   -8.5984    3.4280 C.3         1 ACE      -0.0199
     25 CH          3.7492   -6.1126    3.1457 C.3         1 ACE      -0.0199
     26 N           1.9296   -7.7675    2.6898 N.am        1 ACE      -0.2738
     27 C           3.7130   -7.6579    1.1249 C.2         1 ACE       0.2267
     28 CA          3.3484   -7.5154    2.5511 C.3         1 ACE       0.1331
     29 N           3.5257   -8.8124    0.4804 N.am        1 ACE      -0.2608
     30 CA          3.8127   -9.1427   -0.8936 C.3         1 ACE       0.1474
     31 C           5.0882   -8.5851   -1.3415 C.2         1 ACE       0.2017
     32 O           5.1610   -7.7453   -2.2259 O.2         1 ACE      -0.3945
     33 CB          2.5842   -8.8251   -1.8080 C.3         1 ACE       0.0774
     34 CG          2.6694   -9.4238   -3.1337 C.2         1 ACE       0.1781
     35 OD1         2.9048   -8.7369   -4.1167 O.2         1 ACE      -0.3970
     36 ND2         2.4626  -10.7131   -3.3063 N.am        1 ACE      -0.3007
     37 N           6.2302   -8.9536   -0.8036 N.am        1 ACE      -0.2988
     38 H1         -0.4737  -11.2432    1.2872 H           1 ACE       0.0467
     39 H2          0.9289  -10.7129    0.3438 H           1 ACE       0.0467
     40 H3         -0.6667  -10.8443   -0.4225 H           1 ACE       0.0467
     41 H4         -0.5153   -9.5488    2.7594 H           1 ACE       0.1885
     42 H5         -1.1443   -6.8617    1.9666 H           1 ACE       0.0840
     43 H6         -0.8574   -6.4482    4.4753 H           1 ACE       0.0584
     44 H7         -0.4543   -8.1411    4.6824 H           1 ACE       0.0584
     45 H8         -2.2626   -9.8682    4.2207 H           1 ACE       0.0703
     46 H9         -3.1376   -5.7563    3.8940 H           1 ACE       0.0703
     47 H10        -4.6171  -10.3667    4.1263 H           1 ACE       0.0736
     48 H11        -5.4835   -6.2664    3.8248 H           1 ACE       0.0736
     49 H12         5.2046   -6.9196    5.4636 H           1 ACE       0.0265
     50 H13         3.8013   -6.9941    6.5334 H           1 ACE       0.0265
     51 H14         2.7382   -8.6931    5.1410 H           1 ACE       0.0265
     52 H15         4.3856   -9.2252    5.4897 H           1 ACE       0.0265
     53 H16         3.7746   -4.9862    5.0024 H           1 ACE       0.0265
     54 H17         2.3536   -6.0104    4.8077 H           1 ACE       0.0265
     55 H18         3.7918   -9.6067    3.1218 H           1 ACE       0.0277
     56 H19         5.1573   -8.5181    3.2727 H           1 ACE       0.0277
     57 H20         4.8253   -5.9668    3.0104 H           1 ACE       0.0277
     58 H21         3.2562   -5.3014    2.6071 H           1 ACE       0.0277
     59 H22         1.6918   -8.6635    2.9720 H           1 ACE       0.1839
     60 H23         3.1435   -9.5359    1.0031 H           1 ACE       0.1891
     61 H24         3.9314  -10.2331   -0.9043 H           1 ACE       0.0828
     62 H25         2.4513   -7.7412   -1.8867 H           1 ACE       0.0551
     63 H26         1.6808   -9.2170   -1.3388 H           1 ACE       0.0551
     64 H27         2.5190  -11.1109   -4.1927 H           1 ACE       0.1814
     65 H28         2.2351  -11.2812   -2.5497 H           1 ACE       0.1814
     66 H29         7.0598   -8.5663   -1.1261 H           1 ACE       0.1815
     67 H30         6.2562   -9.6071   -0.0888 H           1 ACE       0.1815
@<TRIPOS>BOND
     1     1     2   2
     2     1     3   1
     3     4     1  am
     4     5     4   1
     5     6     5   1
     6     5     8   1
     7     6     7   2
     8    26     6  am
     9     8     9   1
    10     9    10  ar
    11     9    11  ar
    12    10    12  ar
    13    11    13  ar
    14    12    14  ar
    15    13    14  ar
    16    14    15   1
    17    15    16   1
    18    16    17  ar
    19    16    18  ar
    20    16    19  ar
    21    27    20   2
    22    22    21   1
    23    23    21   1
    24    24    22   1
    25    25    23   1
    26    28    24   1
    27    28    25   1
    28    28    26   1
    29    27    28   1
    30    27    29  am
    31    29    30   1
    32    30    31   1
    33    30    33   1
    34    31    32   2
    35    31    37  am
    36    33    34   1
    37    34    35   2
    38    34    36  am
    39     3    38   1
    40     3    39   1
    41     3    40   1
    42     4    41   1
    43     5    42   1
    44     8    43   1
    45     8    44   1
    46    10    45   1
    47    11    46   1
    48    12    47   1
    49    13    48   1
    50    21    49   1
    51    21    50   1
    52    22    51   1
    53    22    52   1
    54    23    53   1
    55    23    54   1
    56    24    55   1
    57    24    56   1
    58    25    57   1
    59    25    58   1
    60    26    59   1
    61    29    60   1
    62    30    61   1
    63    33    62   1
    64    33    63   1
    65    36    64   1
    66    36    65   1
    67    37    66   1
    68    37    67   1
@<TRIPOS>SUBSTRUCTURE
     1  ACE      1

