@<TRIPOS>MOLECULE
3s8o_ligand_039
    67    68
SMALL
GAST_HUCK
****
This file was generated by PARSER (from files_GN.cpp)

@<TRIPOS>ATOM
      1 C          10.5109  -12.3540   -6.7873 C.2         1 ACE       0.1753
      2 O          10.0247  -12.9700   -5.8253 O.2         1 ACE      -0.3972
      3 CH3        10.7322  -13.0590   -8.0275 C.3         1 ACE       0.0258
      4 N          10.8591  -11.0785   -6.6937 N.am        1 ACE      -0.2628
      5 CA         10.6427  -10.1097   -5.6662 C.3         1 ACE       0.1465
      6 C          10.3846  -10.5730   -4.3007 C.2         1 ACE       0.2045
      7 O           9.7973  -11.6640   -4.1569 O.2         1 ACE      -0.3944
      8 CB          9.5377   -9.1136   -6.1431 C.3         1 ACE       0.0400
      9 CG          9.4834   -7.8564   -5.3493 C.ar        1 ACE      -0.0004
     10 CD1         8.3104   -7.4588   -4.6701 C.ar        1 ACE      -0.0239
     11 CD2        10.6229   -7.0129   -5.2679 C.ar        1 ACE      -0.0239
     12 CE1         8.2675   -6.2608   -3.9358 C.ar        1 ACE       0.0115
     13 CE2        10.5753   -5.8023   -4.5554 C.ar        1 ACE       0.0115
     14 CZ          9.3897   -5.4016   -3.9084 C.ar        1 ACE       0.1728
     15 OH          9.3586   -4.2412   -3.1850 O.3         1 ACE      -0.2040
     16 P           8.9376   -2.9878   -4.0073 P.3         1 ACE       0.1348
     17 O1P         8.9434   -1.8594   -3.1110 O.co2       1 ACE      -0.6653
     18 O2P         9.8597   -2.6875   -5.0733 O.co2       1 ACE      -0.6653
     19 O3P         7.6015   -3.0949   -4.5332 O.co2       1 ACE      -0.6653
     20 O          11.4864  -12.2278   -1.2387 O.2         1 ACE      -0.3419
     21 CD          8.7481   -8.0435   -0.8243 C.3         1 ACE      -0.0532
     22 CG          8.3372   -9.4111   -1.4227 C.3         1 ACE      -0.0516
     23 CE         10.1361   -7.6016   -1.3369 C.3         1 ACE      -0.0516
     24 CB          9.4352  -10.4951   -1.2323 C.3         1 ACE      -0.0199
     25 CH         11.2009   -8.7184   -1.1637 C.3         1 ACE      -0.0199
     26 N          10.8206   -9.8325   -3.2834 N.am        1 ACE      -0.2738
     27 C          11.8546  -11.1355   -1.6631 C.2         1 ACE       0.2267
     28 CA         10.8263  -10.0839   -1.8572 C.3         1 ACE       0.1331
     29 N          13.0939  -11.0258   -2.1487 N.am        1 ACE      -0.2608
     30 CA         14.1494  -12.0125   -2.1745 C.3         1 ACE       0.1474
     31 C          15.2086  -11.6057   -1.2580 C.2         1 ACE       0.2017
     32 O          15.6773  -10.4800   -1.2984 O.2         1 ACE      -0.3945
     33 CB         14.7229  -12.2820   -3.6099 C.3         1 ACE       0.0774
     34 CG         14.9479  -11.1221   -4.4522 C.2         1 ACE       0.1781
     35 OD1        15.2619  -10.0438   -3.9604 O.2         1 ACE      -0.3970
     36 ND2        14.8841  -11.2086   -5.7600 N.am        1 ACE      -0.3007
     37 N          15.7867  -12.4799   -0.4580 N.am        1 ACE      -0.2988
     38 H1         11.2234  -12.4199   -8.7836 H           1 ACE       0.0467
     39 H2          9.7746  -13.4064   -8.4475 H           1 ACE       0.0467
     40 H3         11.3754  -13.9261   -7.8253 H           1 ACE       0.0467
     41 H4         11.3151  -10.7359   -7.4796 H           1 ACE       0.1885
     42 H5         11.5802   -9.5460   -5.6737 H           1 ACE       0.0840
     43 H6          8.5653   -9.6149   -6.1319 H           1 ACE       0.0584
     44 H7          9.7004   -8.8289   -7.1854 H           1 ACE       0.0584
     45 H8          7.4772   -8.0518   -4.6872 H           1 ACE       0.0703
     46 H9         11.4911   -7.2764   -5.7391 H           1 ACE       0.0703
     47 H10         7.4132   -5.9998   -3.4406 H           1 ACE       0.0736
     48 H11        11.4048   -5.2026   -4.5202 H           1 ACE       0.0736
     49 H12         8.7644   -8.1136    0.2634 H           1 ACE       0.0265
     50 H13         8.0080   -7.2881   -1.0970 H           1 ACE       0.0265
     51 H14         8.1405   -9.2861   -2.4855 H           1 ACE       0.0265
     52 H15         7.4074   -9.7438   -0.9550 H           1 ACE       0.0265
     53 H16        10.4587   -6.7209   -0.7810 H           1 ACE       0.0265
     54 H17        10.0690   -7.3259   -2.3912 H           1 ACE       0.0265
     55 H18         9.0695  -11.4350   -1.6552 H           1 ACE       0.0277
     56 H19         9.5649  -10.6644   -0.1563 H           1 ACE       0.0277
     57 H20        11.3257   -8.8962   -0.0918 H           1 ACE       0.0277
     58 H21        12.1507   -8.3366   -1.5472 H           1 ACE       0.0277
     59 H22        11.2681   -8.9967   -3.5449 H           1 ACE       0.1839
     60 H23        13.3211  -10.1787   -2.5597 H           1 ACE       0.1891
     61 H24        13.7509  -12.9675   -1.8108 H           1 ACE       0.0828
     62 H25        14.0298  -12.9556   -4.1203 H           1 ACE       0.0551
     63 H26        15.6697  -12.8309   -3.5559 H           1 ACE       0.0551
     64 H27        15.1069  -10.4458   -6.3176 H           1 ACE       0.1814
     65 H28        14.6772  -12.0621   -6.1776 H           1 ACE       0.1814
     66 H29        16.5267  -12.2068    0.1064 H           1 ACE       0.1815
     67 H30        15.4987  -13.4068   -0.4568 H           1 ACE       0.1815
@<TRIPOS>BOND
     1     1     2   2
     2     1     3   1
     3     4     1  am
     4     5     4   1
     5     6     5   1
     6     5     8   1
     7     6     7   2
     8    26     6  am
     9     8     9   1
    10     9    10  ar
    11     9    11  ar
    12    10    12  ar
    13    11    13  ar
    14    12    14  ar
    15    13    14  ar
    16    14    15   1
    17    15    16   1
    18    16    17  ar
    19    16    18  ar
    20    16    19  ar
    21    27    20   2
    22    22    21   1
    23    23    21   1
    24    24    22   1
    25    25    23   1
    26    28    24   1
    27    28    25   1
    28    28    26   1
    29    27    28   1
    30    27    29  am
    31    29    30   1
    32    30    31   1
    33    30    33   1
    34    31    32   2
    35    31    37  am
    36    33    34   1
    37    34    35   2
    38    34    36  am
    39     3    38   1
    40     3    39   1
    41     3    40   1
    42     4    41   1
    43     5    42   1
    44     8    43   1
    45     8    44   1
    46    10    45   1
    47    11    46   1
    48    12    47   1
    49    13    48   1
    50    21    49   1
    51    21    50   1
    52    22    51   1
    53    22    52   1
    54    23    53   1
    55    23    54   1
    56    24    55   1
    57    24    56   1
    58    25    57   1
    59    25    58   1
    60    26    59   1
    61    29    60   1
    62    30    61   1
    63    33    62   1
    64    33    63   1
    65    36    64   1
    66    36    65   1
    67    37    66   1
    68    37    67   1
@<TRIPOS>SUBSTRUCTURE
     1  ACE      1

