@<TRIPOS>MOLECULE
3s8o_ligand_064
    67    68
SMALL
GAST_HUCK
****
This file was generated by PARSER (from files_GN.cpp)

@<TRIPOS>ATOM
      1 C           9.1317   -9.2952   -1.2328 C.2         1 ACE       0.1753
      2 O           8.4715   -9.0206   -2.2269 O.2         1 ACE      -0.3972
      3 CH3         9.7081  -10.6137   -1.1807 C.3         1 ACE       0.0258
      4 N           9.3010   -8.4438   -0.2246 N.am        1 ACE      -0.2628
      5 CA          8.8523   -7.0749   -0.1294 C.3         1 ACE       0.1465
      6 C           7.4250   -6.9225   -0.4409 C.2         1 ACE       0.2045
      7 O           7.0416   -6.0095   -1.1584 O.2         1 ACE      -0.3944
      8 CB          9.8730   -6.0674   -0.7933 C.3         1 ACE       0.0400
      9 CG         10.7292   -6.5938   -1.8991 C.ar        1 ACE      -0.0004
     10 CD1        12.0882   -6.9147   -1.6712 C.ar        1 ACE      -0.0239
     11 CD2        10.1990   -6.8190   -3.1920 C.ar        1 ACE      -0.0239
     12 CE1        12.8876   -7.4531   -2.6918 C.ar        1 ACE       0.0115
     13 CE2        10.9936   -7.3772   -4.2123 C.ar        1 ACE       0.0115
     14 CZ         12.3531   -7.6777   -3.9761 C.ar        1 ACE       0.1728
     15 OH         13.1337   -8.2654   -4.9380 O.3         1 ACE      -0.2040
     16 P          13.8478   -7.2564   -5.8863 P.3         1 ACE       0.1348
     17 O1P        14.7963   -7.9997   -6.6749 O.co2       1 ACE      -0.6653
     18 O2P        12.9266   -6.6432   -6.8058 O.co2       1 ACE      -0.6653
     19 O3P        14.5958   -6.2381   -5.1895 O.co2       1 ACE      -0.6653
     20 O           4.4381   -9.4911    1.5737 O.2         1 ACE      -0.3419
     21 CD          2.6375   -8.3798   -1.7978 C.3         1 ACE      -0.0532
     22 CG          3.5169   -9.5907   -1.3899 C.3         1 ACE      -0.0516
     23 CE          2.7981   -7.1806   -0.8283 C.3         1 ACE      -0.0516
     24 CB          4.9927   -9.1853   -1.1121 C.3         1 ACE      -0.0199
     25 CH          4.2957   -6.8085   -0.6448 C.3         1 ACE      -0.0199
     26 N           6.5767   -7.8144    0.0635 N.am        1 ACE      -0.2738
     27 C           4.7350   -8.3386    1.2872 C.2         1 ACE       0.2267
     28 CA          5.1519   -8.0062   -0.0853 C.3         1 ACE       0.1331
     29 N           4.7718   -7.4028    2.2376 N.am        1 ACE      -0.2608
     30 CA          4.4478   -7.4757    3.6402 C.3         1 ACE       0.1474
     31 C           5.6873   -7.6453    4.3906 C.2         1 ACE       0.2017
     32 O           6.1184   -6.7427    5.0959 O.2         1 ACE      -0.3945
     33 CB          3.3235   -8.4904    4.0413 C.3         1 ACE       0.0774
     34 CG          2.8230   -8.3623    5.4006 C.2         1 ACE       0.1781
     35 OD1         3.5645   -8.4916    6.3651 O.2         1 ACE      -0.3970
     36 ND2         1.5334   -8.2648    5.6423 N.am        1 ACE      -0.3007
     37 N           6.3633   -8.7758    4.3756 N.am        1 ACE      -0.2988
     38 H1         10.2465  -10.7823   -0.2460 H           1 ACE       0.0467
     39 H2         10.4052  -10.7369   -2.0128 H           1 ACE       0.0467
     40 H3          8.9169  -11.3598   -1.2679 H           1 ACE       0.0467
     41 H4          9.7553   -8.7909    0.5594 H           1 ACE       0.1885
     42 H5          8.8989   -6.8560    0.9451 H           1 ACE       0.0840
     43 H6         10.5221   -5.7012    0.0081 H           1 ACE       0.0584
     44 H7          9.3624   -5.1773   -1.1653 H           1 ACE       0.0584
     45 H8         12.5055   -6.7706   -0.7502 H           1 ACE       0.0703
     46 H9          9.2137   -6.6183   -3.3867 H           1 ACE       0.0703
     47 H10        13.8641   -7.6836   -2.4994 H           1 ACE       0.0736
     48 H11        10.5806   -7.5764   -5.1281 H           1 ACE       0.0736
     49 H12         1.5892   -8.6868   -1.8176 H           1 ACE       0.0265
     50 H13         2.9129   -8.0664   -2.8076 H           1 ACE       0.0265
     51 H14         3.4932  -10.3315   -2.1929 H           1 ACE       0.0265
     52 H15         3.0774  -10.0646   -0.5078 H           1 ACE       0.0265
     53 H16         2.3579   -7.4260    0.1415 H           1 ACE       0.0265
     54 H17         2.2569   -6.3198   -1.2273 H           1 ACE       0.0265
     55 H18         5.4492   -8.8853   -2.0564 H           1 ACE       0.0277
     56 H19         5.5448  -10.0620   -0.7690 H           1 ACE       0.0277
     57 H20         4.3769   -5.9316    0.0044 H           1 ACE       0.0277
     58 H21         4.6764   -6.5173   -1.6274 H           1 ACE       0.0277
     59 H22         7.0060   -8.5185    0.5850 H           1 ACE       0.1839
     60 H23         5.1114   -6.5364    1.9509 H           1 ACE       0.1891
     61 H24         4.0354   -6.4865    3.8745 H           1 ACE       0.0828
     62 H25         3.6942   -9.5108    3.9417 H           1 ACE       0.0551
     63 H26         2.5008   -8.3724    3.3283 H           1 ACE       0.0551
     64 H27         1.2032   -8.3067    6.5562 H           1 ACE       0.1814
     65 H28         0.9025   -8.2318    4.9048 H           1 ACE       0.1814
     66 H29         7.1665   -8.8662    4.9133 H           1 ACE       0.1815
     67 H30         6.0373   -9.5326    3.8645 H           1 ACE       0.1815
@<TRIPOS>BOND
     1     1     2   2
     2     1     3   1
     3     4     1  am
     4     5     4   1
     5     6     5   1
     6     5     8   1
     7     6     7   2
     8    26     6  am
     9     8     9   1
    10     9    10  ar
    11     9    11  ar
    12    10    12  ar
    13    11    13  ar
    14    12    14  ar
    15    13    14  ar
    16    14    15   1
    17    15    16   1
    18    16    17  ar
    19    16    18  ar
    20    16    19  ar
    21    27    20   2
    22    22    21   1
    23    23    21   1
    24    24    22   1
    25    25    23   1
    26    28    24   1
    27    28    25   1
    28    28    26   1
    29    27    28   1
    30    27    29  am
    31    29    30   1
    32    30    31   1
    33    30    33   1
    34    31    32   2
    35    31    37  am
    36    33    34   1
    37    34    35   2
    38    34    36  am
    39     3    38   1
    40     3    39   1
    41     3    40   1
    42     4    41   1
    43     5    42   1
    44     8    43   1
    45     8    44   1
    46    10    45   1
    47    11    46   1
    48    12    47   1
    49    13    48   1
    50    21    49   1
    51    21    50   1
    52    22    51   1
    53    22    52   1
    54    23    53   1
    55    23    54   1
    56    24    55   1
    57    24    56   1
    58    25    57   1
    59    25    58   1
    60    26    59   1
    61    29    60   1
    62    30    61   1
    63    33    62   1
    64    33    63   1
    65    36    64   1
    66    36    65   1
    67    37    66   1
    68    37    67   1
@<TRIPOS>SUBSTRUCTURE
     1  ACE      1

