@<TRIPOS>MOLECULE
3s8o_ligand_056
    67    68
SMALL
GAST_HUCK
****
This file was generated by PARSER (from files_GN.cpp)

@<TRIPOS>ATOM
      1 C           9.5760   -7.7300   -0.6904 C.2         1 ACE       0.1753
      2 O           9.6848   -6.7010   -1.3429 O.2         1 ACE      -0.3972
      3 CH3        10.7700   -8.4967   -0.4279 C.3         1 ACE       0.0258
      4 N           8.4050   -8.1446   -0.2289 N.am        1 ACE      -0.2628
      5 CA          7.1228   -7.5173   -0.3965 C.3         1 ACE       0.1465
      6 C           6.7239   -7.0123    0.9120 C.2         1 ACE       0.2045
      7 O           6.6165   -5.8005    1.0722 O.2         1 ACE      -0.3944
      8 CB          6.1451   -8.5725   -1.0080 C.3         1 ACE       0.0400
      9 CG          4.8041   -8.0625   -1.4110 C.ar        1 ACE      -0.0004
     10 CD1         4.6796   -7.1342   -2.4735 C.ar        1 ACE      -0.0239
     11 CD2         3.6204   -8.5478   -0.8040 C.ar        1 ACE      -0.0239
     12 CE1         3.4141   -6.7023   -2.9099 C.ar        1 ACE       0.0115
     13 CE2         2.3548   -8.1033   -1.2302 C.ar        1 ACE       0.0115
     14 CZ          2.2419   -7.2013   -2.3076 C.ar        1 ACE       0.1728
     15 OH          1.0142   -6.7415   -2.7084 O.3         1 ACE      -0.2040
     16 P           0.3165   -7.6347   -3.7775 P.3         1 ACE       0.1348
     17 O1P         1.0969   -7.7773   -4.9816 O.co2       1 ACE      -0.6653
     18 O2P        -0.0313   -8.9351   -3.2670 O.co2       1 ACE      -0.6653
     19 O3P        -0.9165   -6.9872   -4.1476 O.co2       1 ACE      -0.6653
     20 O           7.3465   -5.8381    4.4619 O.2         1 ACE      -0.3419
     21 CD          3.5146   -8.8747    3.5132 C.3         1 ACE      -0.0532
     22 CG          4.7971   -9.7361    3.3966 C.3         1 ACE      -0.0516
     23 CE          3.7088   -7.4548    2.9294 C.3         1 ACE      -0.0516
     24 CB          6.0440   -9.0052    3.9742 C.3         1 ACE      -0.0199
     25 CH          4.9653   -6.7665    3.5088 C.3         1 ACE      -0.0199
     26 N           6.5907   -7.8563    1.9256 N.am        1 ACE      -0.2738
     27 C           7.4605   -6.9488    3.9472 C.2         1 ACE       0.2267
     28 CA          6.2912   -7.6001    3.3177 C.3         1 ACE       0.1331
     29 N           8.6536   -7.5477    3.9478 N.am        1 ACE      -0.2608
     30 CA          9.8696   -7.0364    4.5262 C.3         1 ACE       0.1474
     31 C          10.5819   -6.2429    3.5313 C.2         1 ACE       0.2017
     32 O          11.2964   -6.7531    2.6818 O.2         1 ACE      -0.3945
     33 CB         10.7387   -8.1497    5.1978 C.3         1 ACE       0.0774
     34 CG         11.2267   -9.2600    4.3911 C.2         1 ACE       0.1781
     35 OD1        10.8248   -9.4741    3.2564 O.2         1 ACE      -0.3970
     36 ND2        12.1116  -10.0995    4.8889 N.am        1 ACE      -0.3007
     37 N          10.3977   -4.9446    3.4468 N.am        1 ACE      -0.2988
     38 H1         10.5555   -9.3966    0.1503 H           1 ACE       0.0467
     39 H2         11.4833   -7.8902    0.1299 H           1 ACE       0.0467
     40 H3         11.2263   -8.7966   -1.3712 H           1 ACE       0.0467
     41 H4          8.4032   -8.9599    0.2980 H           1 ACE       0.1885
     42 H5          7.1928   -6.6836   -1.1051 H           1 ACE       0.0840
     43 H6          6.0370   -9.4047   -0.3073 H           1 ACE       0.0584
     44 H7          6.6103   -8.9961   -1.9023 H           1 ACE       0.0584
     45 H8          5.5127   -6.7807   -2.9484 H           1 ACE       0.0703
     46 H9          3.6695   -9.2276   -0.0425 H           1 ACE       0.0703
     47 H10         3.3473   -6.0297   -3.6782 H           1 ACE       0.0736
     48 H11         1.5130   -8.4553   -0.7683 H           1 ACE       0.0736
     49 H12         3.2274   -8.7931    4.5631 H           1 ACE       0.0265
     50 H13         2.6979   -9.3628    2.9770 H           1 ACE       0.0265
     51 H14         4.9637   -9.9873    2.3442 H           1 ACE       0.0265
     52 H15         4.6472  -10.6736    3.9315 H           1 ACE       0.0265
     53 H16         2.8335   -6.8417    3.1575 H           1 ACE       0.0265
     54 H17         3.8011   -7.5075    1.8429 H           1 ACE       0.0265
     55 H18         6.9085   -9.6586    3.8237 H           1 ACE       0.0277
     56 H19         5.9078   -8.8894    5.0521 H           1 ACE       0.0277
     57 H20         4.8020   -6.6031    4.5766 H           1 ACE       0.0277
     58 H21         5.0652   -5.7812    3.0541 H           1 ACE       0.0277
     59 H22         6.7386   -8.7888    1.6972 H           1 ACE       0.1839
     60 H23         8.7119   -8.4042    3.4967 H           1 ACE       0.1891
     61 H24         9.6120   -6.3664    5.3574 H           1 ACE       0.0828
     62 H25        10.1602   -8.5826    6.0202 H           1 ACE       0.0551
     63 H26        11.6092   -7.6553    5.6451 H           1 ACE       0.0551
     64 H27        12.4331  -10.8418    4.3508 H           1 ACE       0.1814
     65 H28        12.4604   -9.9751    5.7890 H           1 ACE       0.1814
     66 H29        10.8411   -4.4332    2.7541 H           1 ACE       0.1815
     67 H30         9.7990   -4.4953    4.0609 H           1 ACE       0.1815
@<TRIPOS>BOND
     1     1     2   2
     2     1     3   1
     3     4     1  am
     4     5     4   1
     5     6     5   1
     6     5     8   1
     7     6     7   2
     8    26     6  am
     9     8     9   1
    10     9    10  ar
    11     9    11  ar
    12    10    12  ar
    13    11    13  ar
    14    12    14  ar
    15    13    14  ar
    16    14    15   1
    17    15    16   1
    18    16    17  ar
    19    16    18  ar
    20    16    19  ar
    21    27    20   2
    22    22    21   1
    23    23    21   1
    24    24    22   1
    25    25    23   1
    26    28    24   1
    27    28    25   1
    28    28    26   1
    29    27    28   1
    30    27    29  am
    31    29    30   1
    32    30    31   1
    33    30    33   1
    34    31    32   2
    35    31    37  am
    36    33    34   1
    37    34    35   2
    38    34    36  am
    39     3    38   1
    40     3    39   1
    41     3    40   1
    42     4    41   1
    43     5    42   1
    44     8    43   1
    45     8    44   1
    46    10    45   1
    47    11    46   1
    48    12    47   1
    49    13    48   1
    50    21    49   1
    51    21    50   1
    52    22    51   1
    53    22    52   1
    54    23    53   1
    55    23    54   1
    56    24    55   1
    57    24    56   1
    58    25    57   1
    59    25    58   1
    60    26    59   1
    61    29    60   1
    62    30    61   1
    63    33    62   1
    64    33    63   1
    65    36    64   1
    66    36    65   1
    67    37    66   1
    68    37    67   1
@<TRIPOS>SUBSTRUCTURE
     1  ACE      1

