@<TRIPOS>MOLECULE
3s8o_ligand_034
    67    68
SMALL
GAST_HUCK
****
This file was generated by PARSER (from files_GN.cpp)

@<TRIPOS>ATOM
      1 C           6.5287   -8.8931   -1.3016 C.2         1 ACE       0.1753
      2 O           7.0523   -9.1130   -2.3860 O.2         1 ACE      -0.3972
      3 CH3         5.1135   -9.1570   -1.1873 C.3         1 ACE       0.0258
      4 N           7.2541   -8.4917   -0.2610 N.am        1 ACE      -0.2628
      5 CA          8.6729   -8.2582   -0.2629 C.3         1 ACE       0.1465
      6 C           9.2148   -8.4659    1.0768 C.2         1 ACE       0.2045
      7 O          10.0676   -9.3333    1.2169 O.2         1 ACE      -0.3944
      8 CB          8.9920   -6.8459   -0.8516 C.3         1 ACE       0.0400
      9 CG         10.4308   -6.5437   -1.1146 C.ar        1 ACE      -0.0004
     10 CD1        10.9922   -5.3030   -0.7203 C.ar        1 ACE      -0.0239
     11 CD2        11.2379   -7.4386   -1.8574 C.ar        1 ACE      -0.0239
     12 CE1        12.3141   -4.9695   -1.0737 C.ar        1 ACE       0.0115
     13 CE2        12.5711   -7.1291   -2.1588 C.ar        1 ACE       0.0115
     14 CZ         13.1078   -5.8709   -1.8143 C.ar        1 ACE       0.1728
     15 OH         14.4070   -5.5534   -2.0997 O.3         1 ACE      -0.2040
     16 P          14.6530   -5.0702   -3.5659 P.3         1 ACE       0.1348
     17 O1P        14.3635   -6.0960   -4.5309 O.co2       1 ACE      -0.6653
     18 O2P        13.9036   -3.8863   -3.8874 O.co2       1 ACE      -0.6653
     19 O3P        16.0462   -4.7502   -3.7060 O.co2       1 ACE      -0.6653
     20 O           7.6057   -6.5242    4.8333 O.2         1 ACE      -0.3419
     21 CD         11.4113   -7.5184    5.5893 C.3         1 ACE      -0.0532
     22 CG         10.7171   -6.2409    5.0591 C.3         1 ACE      -0.0516
     23 CE         10.4801   -8.7514    5.5032 C.3         1 ACE      -0.0516
     24 CB         10.1085   -6.4370    3.6405 C.3         1 ACE      -0.0199
     25 CH          9.9612   -8.9359    4.0539 C.3         1 ACE      -0.0199
     26 N           8.7916   -7.7222    2.1042 N.am        1 ACE      -0.2738
     27 C           7.8716   -7.5513    4.2220 C.2         1 ACE       0.2267
     28 CA          9.1638   -7.6916    3.5076 C.3         1 ACE       0.1331
     29 N           6.9578   -8.5171    4.1618 N.am        1 ACE      -0.2608
     30 CA          5.6065   -8.5269    4.6695 C.3         1 ACE       0.1474
     31 C           4.7409   -7.6449    3.8860 C.2         1 ACE       0.2017
     32 O           5.0047   -6.4604    3.7405 O.2         1 ACE      -0.3945
     33 CB          5.4971   -8.3993    6.2384 C.3         1 ACE       0.0774
     34 CG          4.6768   -7.3347    6.7961 C.2         1 ACE       0.1781
     35 OD1         3.4788   -7.2751    6.5436 O.2         1 ACE      -0.3970
     36 ND2         5.1475   -6.4574    7.6604 N.am        1 ACE      -0.3007
     37 N           3.6128   -8.0758    3.3576 N.am        1 ACE      -0.2988
     38 H1          4.7424   -8.9612   -0.1815 H           1 ACE       0.0467
     39 H2          4.9225  -10.2033   -1.4292 H           1 ACE       0.0467
     40 H3          4.5541   -8.5338   -1.8863 H           1 ACE       0.0467
     41 H4          6.7854   -8.3686    0.5821 H           1 ACE       0.1885
     42 H5          9.1168   -9.0104   -0.9299 H           1 ACE       0.0840
     43 H6          8.5476   -6.0851   -0.1976 H           1 ACE       0.0584
     44 H7          8.4842   -6.7521   -1.8145 H           1 ACE       0.0584
     45 H8         10.4349   -4.6185   -0.2042 H           1 ACE       0.0703
     46 H9         10.8637   -8.3253   -2.1995 H           1 ACE       0.0703
     47 H10        12.6982   -4.0663   -0.7949 H           1 ACE       0.0736
     48 H11        13.1437   -7.8170   -2.6573 H           1 ACE       0.0736
     49 H12        11.7136   -7.3661    6.6293 H           1 ACE       0.0265
     50 H13        12.3177   -7.7084    5.0088 H           1 ACE       0.0265
     51 H14        11.4478   -5.4274    5.0277 H           1 ACE       0.0265
     52 H15         9.9294   -5.9411    5.7527 H           1 ACE       0.0265
     53 H16         9.6350   -8.6332    6.1829 H           1 ACE       0.0265
     54 H17        11.0359   -9.6419    5.8096 H           1 ACE       0.0265
     55 H18        10.9386   -6.5383    2.9351 H           1 ACE       0.0277
     56 H19         9.5677   -5.5261    3.3655 H           1 ACE       0.0277
     57 H20         9.3537   -9.8435    4.0004 H           1 ACE       0.0277
     58 H21        10.8496   -9.1081    3.4449 H           1 ACE       0.0277
     59 H22         8.1427   -7.0455    1.8524 H           1 ACE       0.1839
     60 H23         7.2253   -9.3196    3.6867 H           1 ACE       0.1891
     61 H24         5.2725   -9.5435    4.4434 H           1 ACE       0.0828
     62 H25         6.5002   -8.3403    6.6672 H           1 ACE       0.0551
     63 H26         5.0743   -9.3329    6.6342 H           1 ACE       0.0551
     64 H27         4.5522   -5.7995    8.0528 H           1 ACE       0.1814
     65 H28         6.0850   -6.4734    7.9139 H           1 ACE       0.1814
     66 H29         3.0485   -7.4737    2.8526 H           1 ACE       0.1815
     67 H30         3.3455   -9.0041    3.4713 H           1 ACE       0.1815
@<TRIPOS>BOND
     1     1     2   2
     2     1     3   1
     3     4     1  am
     4     5     4   1
     5     6     5   1
     6     5     8   1
     7     6     7   2
     8    26     6  am
     9     8     9   1
    10     9    10  ar
    11     9    11  ar
    12    10    12  ar
    13    11    13  ar
    14    12    14  ar
    15    13    14  ar
    16    14    15   1
    17    15    16   1
    18    16    17  ar
    19    16    18  ar
    20    16    19  ar
    21    27    20   2
    22    22    21   1
    23    23    21   1
    24    24    22   1
    25    25    23   1
    26    28    24   1
    27    28    25   1
    28    28    26   1
    29    27    28   1
    30    27    29  am
    31    29    30   1
    32    30    31   1
    33    30    33   1
    34    31    32   2
    35    31    37  am
    36    33    34   1
    37    34    35   2
    38    34    36  am
    39     3    38   1
    40     3    39   1
    41     3    40   1
    42     4    41   1
    43     5    42   1
    44     8    43   1
    45     8    44   1
    46    10    45   1
    47    11    46   1
    48    12    47   1
    49    13    48   1
    50    21    49   1
    51    21    50   1
    52    22    51   1
    53    22    52   1
    54    23    53   1
    55    23    54   1
    56    24    55   1
    57    24    56   1
    58    25    57   1
    59    25    58   1
    60    26    59   1
    61    29    60   1
    62    30    61   1
    63    33    62   1
    64    33    63   1
    65    36    64   1
    66    36    65   1
    67    37    66   1
    68    37    67   1
@<TRIPOS>SUBSTRUCTURE
     1  ACE      1

