@<TRIPOS>MOLECULE
3s8o_ligand_085
    67    68
SMALL
GAST_HUCK
****
This file was generated by PARSER (from files_GN.cpp)

@<TRIPOS>ATOM
      1 C           9.8338  -11.0932   -1.5060 C.2         1 ACE       0.1753
      2 O           8.8389  -10.7702   -2.1453 O.2         1 ACE      -0.3972
      3 CH3        10.2214  -12.4857   -1.4887 C.3         1 ACE       0.0258
      4 N          10.5870  -10.1908   -0.8861 N.am        1 ACE      -0.2628
      5 CA         10.4012   -8.7661   -0.8395 C.3         1 ACE       0.1465
      6 C          11.4654   -8.1711   -1.6499 C.2         1 ACE       0.2045
      7 O          12.2002   -7.3062   -1.1872 O.2         1 ACE      -0.3944
      8 CB         10.3470   -8.3467    0.6692 C.3         1 ACE       0.0400
      9 CG          9.8989   -6.9409    0.9066 C.ar        1 ACE      -0.0004
     10 CD1        10.8380   -5.8977    1.0732 C.ar        1 ACE      -0.0239
     11 CD2         8.5220   -6.6286    1.0078 C.ar        1 ACE      -0.0239
     12 CE1        10.4152   -4.5715    1.2726 C.ar        1 ACE       0.0115
     13 CE2         8.0979   -5.3080    1.2391 C.ar        1 ACE       0.0115
     14 CZ          9.0426   -4.2587    1.3296 C.ar        1 ACE       0.1728
     15 OH          8.6398   -2.9755    1.5761 O.3         1 ACE      -0.2040
     16 P           8.3414   -2.1486    0.2895 P.3         1 ACE       0.1348
     17 O1P         9.4880   -2.0251   -0.5750 O.co2       1 ACE      -0.6653
     18 O2P         7.2213   -2.6719   -0.4513 O.co2       1 ACE      -0.6653
     19 O3P         7.9815   -0.8184    0.7073 O.co2       1 ACE      -0.6653
     20 O          14.8470   -7.7623   -3.2853 O.2         1 ACE      -0.3419
     21 CD         12.9195   -6.7677   -6.6164 C.3         1 ACE      -0.0532
     22 CG         13.2683   -6.0193   -5.3039 C.3         1 ACE      -0.0516
     23 CE         13.0322   -8.3055   -6.4564 C.3         1 ACE      -0.0516
     24 CB         12.4797   -6.5846   -4.0824 C.3         1 ACE      -0.0199
     25 CH         12.1985   -8.8104   -5.2502 C.3         1 ACE      -0.0199
     26 N          11.6461   -8.5902   -2.9037 N.am        1 ACE      -0.2738
     27 C          13.9702   -8.5970   -3.4932 C.2         1 ACE       0.2267
     28 CA         12.6145   -8.1450   -3.8880 C.3         1 ACE       0.1331
     29 N          14.2279   -9.8933   -3.3372 N.am        1 ACE      -0.2608
     30 CA         15.4420  -10.6380   -3.0541 C.3         1 ACE       0.1474
     31 C          15.2367  -11.5237   -1.9020 C.2         1 ACE       0.2017
     32 O          14.1151  -11.8049   -1.5021 O.2         1 ACE      -0.3945
     33 CB         16.8324   -9.8980   -3.0594 C.3         1 ACE       0.0774
     34 CG         17.1970   -9.1724   -1.8475 C.2         1 ACE       0.1781
     35 OD1        16.7293   -8.0683   -1.6056 O.2         1 ACE      -0.3970
     36 ND2        18.0716   -9.6572   -0.9928 N.am        1 ACE      -0.3007
     37 N          16.2167  -12.1987   -1.3341 N.am        1 ACE      -0.2988
     38 H1         11.1618  -12.6383   -0.9526 H           1 ACE       0.0467
     39 H2         10.3517  -12.8462   -2.5118 H           1 ACE       0.0467
     40 H3          9.4467  -13.0798   -0.9991 H           1 ACE       0.0467
     41 H4         11.3690  -10.5361   -0.4296 H           1 ACE       0.1885
     42 H5          9.4420   -8.4834   -1.2923 H           1 ACE       0.0840
     43 H6         11.3294   -8.5097    1.1225 H           1 ACE       0.0584
     44 H7          9.6598   -9.0119    1.2057 H           1 ACE       0.0584
     45 H8         11.8423   -6.0956    1.0496 H           1 ACE       0.0703
     46 H9          7.8168   -7.3660    0.9309 H           1 ACE       0.0703
     47 H10        11.1109   -3.8287    1.3719 H           1 ACE       0.0736
     48 H11         7.1010   -5.1013    1.3293 H           1 ACE       0.0736
     49 H12        13.5971   -6.4370   -7.4077 H           1 ACE       0.0265
     50 H13        11.9011   -6.5103   -6.9168 H           1 ACE       0.0265
     51 H14        13.0325   -4.9607   -5.4255 H           1 ACE       0.0265
     52 H15        14.3420   -6.0926   -5.1251 H           1 ACE       0.0265
     53 H16        14.0828   -8.5819   -6.3216 H           1 ACE       0.0265
     54 H17        12.6762   -8.7856   -7.3724 H           1 ACE       0.0265
     55 H18        11.4219   -6.3334   -4.2196 H           1 ACE       0.0277
     56 H19        12.8123   -6.0642   -3.1785 H           1 ACE       0.0277
     57 H20        12.2867   -9.8989   -5.1970 H           1 ACE       0.0277
     58 H21        11.1433   -8.5925   -5.4558 H           1 ACE       0.0277
     59 H22        11.0501   -9.3001   -3.1995 H           1 ACE       0.1839
     60 H23        13.4590  -10.4720   -3.4828 H           1 ACE       0.1891
     61 H24        15.5032  -11.3245   -3.9084 H           1 ACE       0.0828
     62 H25        16.8818   -9.2115   -3.9071 H           1 ACE       0.0551
     63 H26        17.6094  -10.6484   -3.2624 H           1 ACE       0.0551
     64 H27        18.3061   -9.1456   -0.1977 H           1 ACE       0.1814
     65 H28        18.4717  -10.5297   -1.1408 H           1 ACE       0.1814
     66 H29        16.0212  -12.8162   -0.6097 H           1 ACE       0.1815
     67 H30        17.1325  -12.0857   -1.6271 H           1 ACE       0.1815
@<TRIPOS>BOND
     1     1     2   2
     2     1     3   1
     3     4     1  am
     4     5     4   1
     5     6     5   1
     6     5     8   1
     7     6     7   2
     8    26     6  am
     9     8     9   1
    10     9    10  ar
    11     9    11  ar
    12    10    12  ar
    13    11    13  ar
    14    12    14  ar
    15    13    14  ar
    16    14    15   1
    17    15    16   1
    18    16    17  ar
    19    16    18  ar
    20    16    19  ar
    21    27    20   2
    22    22    21   1
    23    23    21   1
    24    24    22   1
    25    25    23   1
    26    28    24   1
    27    28    25   1
    28    28    26   1
    29    27    28   1
    30    27    29  am
    31    29    30   1
    32    30    31   1
    33    30    33   1
    34    31    32   2
    35    31    37  am
    36    33    34   1
    37    34    35   2
    38    34    36  am
    39     3    38   1
    40     3    39   1
    41     3    40   1
    42     4    41   1
    43     5    42   1
    44     8    43   1
    45     8    44   1
    46    10    45   1
    47    11    46   1
    48    12    47   1
    49    13    48   1
    50    21    49   1
    51    21    50   1
    52    22    51   1
    53    22    52   1
    54    23    53   1
    55    23    54   1
    56    24    55   1
    57    24    56   1
    58    25    57   1
    59    25    58   1
    60    26    59   1
    61    29    60   1
    62    30    61   1
    63    33    62   1
    64    33    63   1
    65    36    64   1
    66    36    65   1
    67    37    66   1
    68    37    67   1
@<TRIPOS>SUBSTRUCTURE
     1  ACE      1

