@<TRIPOS>MOLECULE
3s8o_ligand_091
    67    68
SMALL
GAST_HUCK
****
This file was generated by PARSER (from files_GN.cpp)

@<TRIPOS>ATOM
      1 C          12.9235  -10.7455   -4.2454 C.2         1 ACE       0.1753
      2 O          12.4970  -10.6417   -3.1016 O.2         1 ACE      -0.3972
      3 CH3        13.9526  -11.7284   -4.4937 C.3         1 ACE       0.0258
      4 N          12.5261   -9.9356   -5.2249 N.am        1 ACE      -0.2628
      5 CA         11.6889   -8.7710   -5.0948 C.3         1 ACE       0.1465
      6 C          10.5565   -8.9083   -6.0051 C.2         1 ACE       0.2045
      7 O           9.4273   -8.9719   -5.5306 O.2         1 ACE      -0.3944
      8 CB         12.5024   -7.4583   -5.3579 C.3         1 ACE       0.0400
      9 CG         13.8673   -7.4952   -4.7587 C.ar        1 ACE      -0.0004
     10 CD1        14.0826   -7.0956   -3.4178 C.ar        1 ACE      -0.0239
     11 CD2        14.9554   -8.0205   -5.4934 C.ar        1 ACE      -0.0239
     12 CE1        15.3585   -7.2125   -2.8365 C.ar        1 ACE       0.0115
     13 CE2        16.2265   -8.1410   -4.9092 C.ar        1 ACE       0.0115
     14 CZ         16.4300   -7.7694   -3.5619 C.ar        1 ACE       0.1728
     15 OH         17.6553   -7.8538   -2.9601 O.3         1 ACE      -0.2040
     16 P          17.9539   -9.2460   -2.3370 P.3         1 ACE       0.1348
     17 O1P        16.9201   -9.7605   -1.4742 O.co2       1 ACE      -0.6653
     18 O2P        18.2951  -10.2238   -3.3492 O.co2       1 ACE      -0.6653
     19 O3P        19.1331   -9.1004   -1.5162 O.co2       1 ACE      -0.6653
     20 O          10.7639  -10.3269  -10.1646 O.2         1 ACE      -0.3419
     21 CD          7.9777   -7.3798  -10.3015 C.3         1 ACE      -0.0532
     22 CG          9.4982   -7.4525  -10.5962 C.3         1 ACE      -0.0516
     23 CE          7.4984   -8.5919   -9.4601 C.3         1 ACE      -0.0516
     24 CB         10.3445   -7.7162   -9.3148 C.3         1 ACE      -0.0199
     25 CH          8.3494   -8.7446   -8.1668 C.3         1 ACE      -0.0199
     26 N          10.7742   -8.9696   -7.3159 N.am        1 ACE      -0.2738
     27 C          10.1136  -10.2520   -9.1237 C.2         1 ACE       0.2267
     28 CA          9.8834   -8.9552   -8.4576 C.3         1 ACE       0.1331
     29 N           9.6524  -11.3771   -8.5723 N.am        1 ACE      -0.2608
     30 CA          9.6311  -12.7223   -9.0968 C.3         1 ACE       0.1474
     31 C          10.9604  -13.1857   -9.4839 C.2         1 ACE       0.2017
     32 O          11.5671  -14.0025   -8.7968 O.2         1 ACE      -0.3945
     33 CB          8.5142  -12.8869  -10.1809 C.3         1 ACE       0.0774
     34 CG          8.4139  -14.2241  -10.7584 C.2         1 ACE       0.1781
     35 OD1         7.4401  -14.9309  -10.5271 O.2         1 ACE      -0.3970
     36 ND2         9.3230  -14.6869  -11.5844 N.am        1 ACE      -0.3007
     37 N          11.5355  -12.8219  -10.6097 N.am        1 ACE      -0.2988
     38 H1         14.3036  -11.6970   -5.5290 H           1 ACE       0.0467
     39 H2         13.5629  -12.7277   -4.2818 H           1 ACE       0.0467
     40 H3         14.8087  -11.5353   -3.8402 H           1 ACE       0.0467
     41 H4         12.9111  -10.0985   -6.1011 H           1 ACE       0.1885
     42 H5         11.3047   -8.6919   -4.0709 H           1 ACE       0.0840
     43 H6         11.9517   -6.6063   -4.9451 H           1 ACE       0.0584
     44 H7         12.5817   -7.2762   -6.4355 H           1 ACE       0.0584
     45 H8         13.3138   -6.7183   -2.8591 H           1 ACE       0.0703
     46 H9         14.8224   -8.3365   -6.4597 H           1 ACE       0.0703
     47 H10        15.4985   -6.9223   -1.8675 H           1 ACE       0.0736
     48 H11        16.9962   -8.5397   -5.4512 H           1 ACE       0.0736
     49 H12         7.4270   -7.3580  -11.2484 H           1 ACE       0.0265
     50 H13         7.7514   -6.4523   -9.7622 H           1 ACE       0.0265
     51 H14         9.8159   -6.5078  -11.0444 H           1 ACE       0.0265
     52 H15         9.6800   -8.2448  -11.3253 H           1 ACE       0.0265
     53 H16         7.5631   -9.5066  -10.0642 H           1 ACE       0.0265
     54 H17         6.4450   -8.4464   -9.1872 H           1 ACE       0.0265
     55 H18        10.2895   -6.8187   -8.6880 H           1 ACE       0.0277
     56 H19        11.3938   -7.8290   -9.6129 H           1 ACE       0.0277
     57 H20         7.9395   -9.5717   -7.5822 H           1 ACE       0.0277
     58 H21         8.2186   -7.8291   -7.5857 H           1 ACE       0.0277
     59 H22        11.7112   -8.9720   -7.5694 H           1 ACE       0.1839
     60 H23         9.1875  -11.2675   -7.7259 H           1 ACE       0.1891
     61 H24         9.3128  -13.3367   -8.2465 H           1 ACE       0.0828
     62 H25         8.6709  -12.1663  -10.9859 H           1 ACE       0.0551
     63 H26         7.5622  -12.6286   -9.7099 H           1 ACE       0.0551
     64 H27         9.2721  -15.6020  -11.9155 H           1 ACE       0.1814
     65 H28        10.0853  -14.1334  -11.8354 H           1 ACE       0.1814
     66 H29        12.3904  -13.1892  -10.8617 H           1 ACE       0.1815
     67 H30        11.0828  -12.2212  -11.2194 H           1 ACE       0.1815
@<TRIPOS>BOND
     1     1     2   2
     2     1     3   1
     3     4     1  am
     4     5     4   1
     5     6     5   1
     6     5     8   1
     7     6     7   2
     8    26     6  am
     9     8     9   1
    10     9    10  ar
    11     9    11  ar
    12    10    12  ar
    13    11    13  ar
    14    12    14  ar
    15    13    14  ar
    16    14    15   1
    17    15    16   1
    18    16    17  ar
    19    16    18  ar
    20    16    19  ar
    21    27    20   2
    22    22    21   1
    23    23    21   1
    24    24    22   1
    25    25    23   1
    26    28    24   1
    27    28    25   1
    28    28    26   1
    29    27    28   1
    30    27    29  am
    31    29    30   1
    32    30    31   1
    33    30    33   1
    34    31    32   2
    35    31    37  am
    36    33    34   1
    37    34    35   2
    38    34    36  am
    39     3    38   1
    40     3    39   1
    41     3    40   1
    42     4    41   1
    43     5    42   1
    44     8    43   1
    45     8    44   1
    46    10    45   1
    47    11    46   1
    48    12    47   1
    49    13    48   1
    50    21    49   1
    51    21    50   1
    52    22    51   1
    53    22    52   1
    54    23    53   1
    55    23    54   1
    56    24    55   1
    57    24    56   1
    58    25    57   1
    59    25    58   1
    60    26    59   1
    61    29    60   1
    62    30    61   1
    63    33    62   1
    64    33    63   1
    65    36    64   1
    66    36    65   1
    67    37    66   1
    68    37    67   1
@<TRIPOS>SUBSTRUCTURE
     1  ACE      1

