@<TRIPOS>MOLECULE
3s8o_ligand_007
    67    68
SMALL
GAST_HUCK
****
This file was generated by PARSER (from files_GN.cpp)

@<TRIPOS>ATOM
      1 C          10.3269   -8.4817    2.7706 C.2         1 ACE       0.1753
      2 O          11.0292   -7.4797    2.8759 O.2         1 ACE      -0.3972
      3 CH3        10.2472   -9.3622    3.9131 C.3         1 ACE       0.0258
      4 N           9.6261   -8.7264    1.6663 N.am        1 ACE      -0.2628
      5 CA          9.4739   -7.8423    0.5419 C.3         1 ACE       0.1465
      6 C           8.1404   -8.0252   -0.0374 C.2         1 ACE       0.2045
      7 O           7.9422   -9.0277   -0.7083 O.2         1 ACE      -0.3944
      8 CB         10.6440   -7.9384   -0.4987 C.3         1 ACE       0.0400
      9 CG         10.5399   -9.0004   -1.5368 C.ar        1 ACE      -0.0004
     10 CD1        10.4091  -10.3647   -1.1761 C.ar        1 ACE      -0.0239
     11 CD2        10.5327   -8.6791   -2.9191 C.ar        1 ACE      -0.0239
     12 CE1        10.2822  -11.3647   -2.1539 C.ar        1 ACE       0.0115
     13 CE2        10.3794   -9.6739   -3.8943 C.ar        1 ACE       0.0115
     14 CZ         10.2808  -11.0403   -3.5288 C.ar        1 ACE       0.1728
     15 OH         10.0985  -12.0646   -4.4264 O.3         1 ACE      -0.2040
     16 P          11.0172  -12.0772   -5.6885 P.3         1 ACE       0.1348
     17 O1P        11.1874  -13.4558   -6.0689 O.co2       1 ACE      -0.6653
     18 O2P        10.3580  -11.4275   -6.7994 O.co2       1 ACE      -0.6653
     19 O3P        12.3308  -11.5137   -5.4900 O.co2       1 ACE      -0.6653
     20 O           4.2524   -6.7286    1.5582 O.2         1 ACE      -0.3419
     21 CD          3.8578   -6.1402   -2.3660 C.3         1 ACE      -0.0532
     22 CG          4.0131   -7.6423   -2.0217 C.3         1 ACE      -0.0516
     23 CE          4.1862   -5.2500   -1.1436 C.3         1 ACE      -0.0516
     24 CB          5.4156   -7.9557   -1.4421 C.3         1 ACE      -0.0199
     25 CH          5.5856   -5.5876   -0.5591 C.3         1 ACE      -0.0199
     26 N           7.1669   -7.1582    0.2525 N.am        1 ACE      -0.2738
     27 C           4.9937   -7.5318    0.9958 C.2         1 ACE       0.2267
     28 CA          5.7818   -7.1031   -0.1719 C.3         1 ACE       0.1331
     29 N           5.0933   -8.7743    1.4596 N.am        1 ACE      -0.2608
     30 CA          4.3726   -9.4361    2.5273 C.3         1 ACE       0.1474
     31 C           3.0976   -8.8416    2.9372 C.2         1 ACE       0.2017
     32 O           2.9545   -8.3049    4.0268 O.2         1 ACE      -0.3945
     33 CB          5.3410   -9.7607    3.7089 C.3         1 ACE       0.0774
     34 CG          6.2999   -8.7177    4.0241 C.2         1 ACE       0.1781
     35 OD1         6.1907   -8.0275    5.0353 O.2         1 ACE      -0.3970
     36 ND2         7.3265   -8.4852    3.2359 N.am        1 ACE      -0.3007
     37 N           2.0632   -8.8370    2.1224 N.am        1 ACE      -0.2988
     38 H1          9.5686  -10.1953    3.7288 H           1 ACE       0.0467
     39 H2          9.8753   -8.8136    4.7814 H           1 ACE       0.0467
     40 H3         11.2359   -9.7645    4.1481 H           1 ACE       0.0467
     41 H4          9.0746   -9.5277    1.6738 H           1 ACE       0.1885
     42 H5          9.5252   -6.8242    0.9484 H           1 ACE       0.0840
     43 H6         11.5928   -8.0807    0.0322 H           1 ACE       0.0584
     44 H7         10.7188   -6.9621   -0.9892 H           1 ACE       0.0584
     45 H8         10.3999  -10.6263   -0.1913 H           1 ACE       0.0703
     46 H9         10.6138   -7.7051   -3.2256 H           1 ACE       0.0703
     47 H10        10.1578  -12.3429   -1.8597 H           1 ACE       0.0736
     48 H11        10.3353   -9.4111   -4.8823 H           1 ACE       0.0736
     49 H12         2.8305   -5.9489   -2.6947 H           1 ACE       0.0265
     50 H13         4.5276   -5.8854   -3.1913 H           1 ACE       0.0265
     51 H14         3.8517   -8.2406   -2.9230 H           1 ACE       0.0265
     52 H15         3.2477   -7.9301   -1.2929 H           1 ACE       0.0265
     53 H16         3.4079   -5.3845   -0.3893 H           1 ACE       0.0265
     54 H17         4.1653   -4.2011   -1.4479 H           1 ACE       0.0265
     55 H18         6.1647   -7.7641   -2.2196 H           1 ACE       0.0277
     56 H19         5.4471   -9.0280   -1.2211 H           1 ACE       0.0277
     57 H20         5.7529   -4.9461    0.3104 H           1 ACE       0.0277
     58 H21         6.3331   -5.3035   -1.3069 H           1 ACE       0.0277
     59 H22         7.4332   -6.4520    0.8701 H           1 ACE       0.1839
     60 H23         5.7876   -9.3169    1.0448 H           1 ACE       0.1891
     61 H24         4.1040  -10.4086    2.1132 H           1 ACE       0.0828
     62 H25         5.9016  -10.6762    3.4811 H           1 ACE       0.0551
     63 H26         4.7386   -9.9780    4.5947 H           1 ACE       0.0551
     64 H27         7.9714   -7.7923    3.4561 H           1 ACE       0.1814
     65 H28         7.4466   -9.0231    2.4349 H           1 ACE       0.1814
     66 H29         1.2249   -8.4460    2.4183 H           1 ACE       0.1815
     67 H30         2.1192   -9.2701    1.2593 H           1 ACE       0.1815
@<TRIPOS>BOND
     1     1     2   2
     2     1     3   1
     3     4     1  am
     4     5     4   1
     5     6     5   1
     6     5     8   1
     7     6     7   2
     8    26     6  am
     9     8     9   1
    10     9    10  ar
    11     9    11  ar
    12    10    12  ar
    13    11    13  ar
    14    12    14  ar
    15    13    14  ar
    16    14    15   1
    17    15    16   1
    18    16    17  ar
    19    16    18  ar
    20    16    19  ar
    21    27    20   2
    22    22    21   1
    23    23    21   1
    24    24    22   1
    25    25    23   1
    26    28    24   1
    27    28    25   1
    28    28    26   1
    29    27    28   1
    30    27    29  am
    31    29    30   1
    32    30    31   1
    33    30    33   1
    34    31    32   2
    35    31    37  am
    36    33    34   1
    37    34    35   2
    38    34    36  am
    39     3    38   1
    40     3    39   1
    41     3    40   1
    42     4    41   1
    43     5    42   1
    44     8    43   1
    45     8    44   1
    46    10    45   1
    47    11    46   1
    48    12    47   1
    49    13    48   1
    50    21    49   1
    51    21    50   1
    52    22    51   1
    53    22    52   1
    54    23    53   1
    55    23    54   1
    56    24    55   1
    57    24    56   1
    58    25    57   1
    59    25    58   1
    60    26    59   1
    61    29    60   1
    62    30    61   1
    63    33    62   1
    64    33    63   1
    65    36    64   1
    66    36    65   1
    67    37    66   1
    68    37    67   1
@<TRIPOS>SUBSTRUCTURE
     1  ACE      1

