@<TRIPOS>MOLECULE
3s8o_ligand_068
    67    68
SMALL
GAST_HUCK
****
This file was generated by PARSER (from files_GN.cpp)

@<TRIPOS>ATOM
      1 C          12.1972   -5.1029   -0.8067 C.2         1 ACE       0.1753
      2 O          12.9661   -5.9480   -1.2539 O.2         1 ACE      -0.3972
      3 CH3        12.7300   -3.8225   -0.4069 C.3         1 ACE       0.0258
      4 N          10.8951   -5.3448   -0.7010 N.am        1 ACE      -0.2628
      5 CA         10.2149   -6.5386   -1.1236 C.3         1 ACE       0.1465
      6 C           8.8277   -6.4364   -0.6815 C.2         1 ACE       0.2045
      7 O           7.9101   -6.5321   -1.4893 O.2         1 ACE      -0.3944
      8 CB         10.8879   -7.8540   -0.5821 C.3         1 ACE       0.0400
      9 CG         10.9497   -8.9472   -1.5986 C.ar        1 ACE      -0.0004
     10 CD1         9.9399   -9.9362   -1.6738 C.ar        1 ACE      -0.0239
     11 CD2        12.0753   -9.0593   -2.4521 C.ar        1 ACE      -0.0239
     12 CE1        10.0607  -11.0203   -2.5679 C.ar        1 ACE       0.0115
     13 CE2        12.2008  -10.1508   -3.3348 C.ar        1 ACE       0.0115
     14 CZ         11.1893  -11.1299   -3.4080 C.ar        1 ACE       0.1728
     15 OH         11.3885  -12.2533   -4.1740 O.3         1 ACE      -0.2040
     16 P          10.9840  -12.1003   -5.6627 P.3         1 ACE       0.1348
     17 O1P        11.3980  -10.8566   -6.2663 O.co2       1 ACE      -0.6653
     18 O2P        11.6581  -13.1628   -6.3683 O.co2       1 ACE      -0.6653
     19 O3P         9.5652  -12.2899   -5.8295 O.co2       1 ACE      -0.6653
     20 O           7.5791   -5.2850    3.5861 O.2         1 ACE      -0.3419
     21 CD          4.3545   -5.9907    1.3540 C.3         1 ACE      -0.0532
     22 CG          5.0780   -7.2868    1.8032 C.3         1 ACE      -0.0516
     23 CE          5.2128   -4.7285    1.6286 C.3         1 ACE      -0.0516
     24 CB          6.4746   -7.4123    1.1363 C.3         1 ACE      -0.0199
     25 CH          6.6335   -4.8543    1.0095 C.3         1 ACE      -0.0199
     26 N           8.6137   -6.2549    0.6124 N.am        1 ACE      -0.2738
     27 C           7.8810   -6.1920    2.8016 C.2         1 ACE       0.2267
     28 CA          7.4014   -6.1709    1.4010 C.3         1 ACE       0.1331
     29 N           8.6347   -7.1990    3.2534 N.am        1 ACE      -0.2608
     30 CA          9.2469   -7.3517    4.5447 C.3         1 ACE       0.1474
     31 C          10.4117   -6.4731    4.6768 C.2         1 ACE       0.2017
     32 O          11.5140   -6.7746    4.2371 O.2         1 ACE      -0.3945
     33 CB          9.5135   -8.8672    4.8225 C.3         1 ACE       0.0774
     34 CG         10.5745   -9.5320    4.0802 C.2         1 ACE       0.1781
     35 OD1        10.8821   -9.1631    2.9536 O.2         1 ACE      -0.3970
     36 ND2        11.1975  -10.5867    4.5625 N.am        1 ACE      -0.3007
     37 N          10.3384   -5.3265    5.3132 N.am        1 ACE      -0.2988
     38 H1         11.9345   -3.1287   -0.1022 H           1 ACE       0.0467
     39 H2         13.2760   -3.3747   -1.2444 H           1 ACE       0.0467
     40 H3         13.4119   -3.9661    0.4364 H           1 ACE       0.0467
     41 H4         10.3540   -4.6311   -0.3228 H           1 ACE       0.1885
     42 H5         10.2331   -6.5390   -2.2221 H           1 ACE       0.0840
     43 H6         10.3741   -8.2315    0.3126 H           1 ACE       0.0584
     44 H7         11.9052   -7.6290   -0.2459 H           1 ACE       0.0584
     45 H8          9.1203   -9.8840   -1.0614 H           1 ACE       0.0703
     46 H9         12.8271   -8.3667   -2.4150 H           1 ACE       0.0703
     47 H10         9.3377  -11.7425   -2.5877 H           1 ACE       0.0736
     48 H11        13.0408  -10.2366   -3.9122 H           1 ACE       0.0736
     49 H12         3.4011   -5.9061    1.8886 H           1 ACE       0.0265
     50 H13         4.1322   -6.0505    0.2879 H           1 ACE       0.0265
     51 H14         4.4646   -8.1490    1.5215 H           1 ACE       0.0265
     52 H15         5.1842   -7.2913    2.8913 H           1 ACE       0.0265
     53 H16         5.2788   -4.5674    2.7081 H           1 ACE       0.0265
     54 H17         4.7066   -3.8582    1.1994 H           1 ACE       0.0265
     55 H18         6.3072   -7.5392    0.0671 H           1 ACE       0.0277
     56 H19         6.9514   -8.3336    1.4837 H           1 ACE       0.0277
     57 H20         7.2222   -3.9774    1.2995 H           1 ACE       0.0277
     58 H21         6.5085   -4.8018   -0.0756 H           1 ACE       0.0277
     59 H22         9.4294   -6.1818    1.1431 H           1 ACE       0.1839
     60 H23         8.8080   -7.9115    2.6073 H           1 ACE       0.1891
     61 H24         8.5214   -7.0404    5.3010 H           1 ACE       0.0828
     62 H25         8.5906   -9.4087    4.6125 H           1 ACE       0.0551
     63 H26         9.7043   -8.9752    5.8935 H           1 ACE       0.0551
     64 H27        11.8893  -11.0343    4.0448 H           1 ACE       0.1814
     65 H28        10.9597  -10.9421    5.4357 H           1 ACE       0.1814
     66 H29        11.1302   -4.7716    5.4071 H           1 ACE       0.1815
     67 H30         9.5048   -5.0416    5.7174 H           1 ACE       0.1815
@<TRIPOS>BOND
     1     1     2   2
     2     1     3   1
     3     4     1  am
     4     5     4   1
     5     6     5   1
     6     5     8   1
     7     6     7   2
     8    26     6  am
     9     8     9   1
    10     9    10  ar
    11     9    11  ar
    12    10    12  ar
    13    11    13  ar
    14    12    14  ar
    15    13    14  ar
    16    14    15   1
    17    15    16   1
    18    16    17  ar
    19    16    18  ar
    20    16    19  ar
    21    27    20   2
    22    22    21   1
    23    23    21   1
    24    24    22   1
    25    25    23   1
    26    28    24   1
    27    28    25   1
    28    28    26   1
    29    27    28   1
    30    27    29  am
    31    29    30   1
    32    30    31   1
    33    30    33   1
    34    31    32   2
    35    31    37  am
    36    33    34   1
    37    34    35   2
    38    34    36  am
    39     3    38   1
    40     3    39   1
    41     3    40   1
    42     4    41   1
    43     5    42   1
    44     8    43   1
    45     8    44   1
    46    10    45   1
    47    11    46   1
    48    12    47   1
    49    13    48   1
    50    21    49   1
    51    21    50   1
    52    22    51   1
    53    22    52   1
    54    23    53   1
    55    23    54   1
    56    24    55   1
    57    24    56   1
    58    25    57   1
    59    25    58   1
    60    26    59   1
    61    29    60   1
    62    30    61   1
    63    33    62   1
    64    33    63   1
    65    36    64   1
    66    36    65   1
    67    37    66   1
    68    37    67   1
@<TRIPOS>SUBSTRUCTURE
     1  ACE      1

