@<TRIPOS>MOLECULE
3s8o_ligand_070
    67    68
SMALL
GAST_HUCK
****
This file was generated by PARSER (from files_GN.cpp)

@<TRIPOS>ATOM
      1 C           7.6221   -8.4487    3.4776 C.2         1 ACE       0.1753
      2 O           8.3533   -9.3667    3.8311 O.2         1 ACE      -0.3972
      3 CH3         6.2116   -8.7372    3.3400 C.3         1 ACE       0.0258
      4 N           8.1015   -7.2355    3.2029 N.am        1 ACE      -0.2628
      5 CA          9.4823   -6.8258    3.1967 C.3         1 ACE       0.1465
      6 C           9.6616   -5.7808    4.2162 C.2         1 ACE       0.2045
      7 O          10.2728   -6.0548    5.2439 O.2         1 ACE      -0.3944
      8 CB          9.9055   -6.3727    1.7588 C.3         1 ACE       0.0400
      9 CG          9.8145   -7.3743    0.6458 C.ar        1 ACE      -0.0004
     10 CD1         9.7629   -6.9315   -0.7036 C.ar        1 ACE      -0.0239
     11 CD2         9.7778   -8.7740    0.8736 C.ar        1 ACE      -0.0239
     12 CE1         9.6417   -7.8424   -1.7687 C.ar        1 ACE       0.0115
     13 CE2         9.6322   -9.6822   -0.1891 C.ar        1 ACE       0.0115
     14 CZ          9.5737   -9.2275   -1.5220 C.ar        1 ACE       0.1728
     15 OH          9.3111  -10.1086   -2.5427 O.3         1 ACE      -0.2040
     16 P          10.4362  -11.1409   -2.8619 P.3         1 ACE       0.1348
     17 O1P        11.4726  -10.6114   -3.7265 O.co2       1 ACE      -0.6653
     18 O2P        11.0419  -11.7375   -1.6914 O.co2       1 ACE      -0.6653
     19 O3P         9.8163  -12.2270   -3.5844 O.co2       1 ACE      -0.6653
     20 O           8.4899   -3.6704    7.2968 O.2         1 ACE      -0.3419
     21 CD         10.7170   -1.3158    3.6248 C.3         1 ACE      -0.0532
     22 CG          9.2907   -1.6716    3.1346 C.3         1 ACE      -0.0516
     23 CE         11.3835   -2.5122    4.3456 C.3         1 ACE      -0.0516
     24 CB          8.4079   -2.2399    4.2792 C.3         1 ACE      -0.0199
     25 CH         10.4882   -3.0400    5.4937 C.3         1 ACE      -0.0199
     26 N           9.1048   -4.5799    4.0743 N.am        1 ACE      -0.2738
     27 C           8.1438   -3.8555    6.1301 C.2         1 ACE       0.2267
     28 CA          9.0452   -3.4755    5.0188 C.3         1 ACE       0.1331
     29 N           6.9406   -4.3596    5.8637 N.am        1 ACE      -0.2608
     30 CA          5.8873   -4.9029    6.6960 C.3         1 ACE       0.1474
     31 C           6.0237   -4.7299    8.1361 C.2         1 ACE       0.2017
     32 O           7.0050   -5.1489    8.7305 O.2         1 ACE      -0.3945
     33 CB          5.6999   -6.3973    6.2757 C.3         1 ACE       0.0774
     34 CG          4.5316   -7.0704    6.8236 C.2         1 ACE       0.1781
     35 OD1         4.5628   -7.4806    7.9753 O.2         1 ACE      -0.3970
     36 ND2         3.4531   -7.3070    6.1003 N.am        1 ACE      -0.3007
     37 N           5.0699   -4.1770    8.8661 N.am        1 ACE      -0.2988
     38 H1          5.6450   -7.8520    3.0513 H           1 ACE       0.0467
     39 H2          5.8174   -9.1111    4.2852 H           1 ACE       0.0467
     40 H3          6.0715   -9.5006    2.5748 H           1 ACE       0.0467
     41 H4          7.4482   -6.5616    2.9500 H           1 ACE       0.1885
     42 H5         10.1282   -7.6640    3.4717 H           1 ACE       0.0840
     43 H6         10.9349   -6.0060    1.8030 H           1 ACE       0.0584
     44 H7          9.2751   -5.5208    1.4929 H           1 ACE       0.0584
     45 H8          9.7963   -5.9332   -0.9128 H           1 ACE       0.0703
     46 H9          9.8361   -9.1473    1.8184 H           1 ACE       0.0703
     47 H10         9.5826   -7.4932   -2.7290 H           1 ACE       0.0736
     48 H11         9.5591  -10.6807    0.0080 H           1 ACE       0.0736
     49 H12        10.6681   -0.4607    4.3099 H           1 ACE       0.0265
     50 H13        11.3365   -1.0206    2.7713 H           1 ACE       0.0265
     51 H14         9.3637   -2.4038    2.3329 H           1 ACE       0.0265
     52 H15         8.8245   -0.7741    2.7259 H           1 ACE       0.0265
     53 H16        12.3483   -2.1964    4.7522 H           1 ACE       0.0265
     54 H17        11.5700   -3.3158    3.6306 H           1 ACE       0.0265
     55 H18         7.4403   -2.5152    3.8470 H           1 ACE       0.0277
     56 H19         8.2214   -1.4309    4.9978 H           1 ACE       0.0277
     57 H20        10.4004   -2.2365    6.2381 H           1 ACE       0.0277
     58 H21        10.9958   -3.8761    5.9823 H           1 ACE       0.0277
     59 H22         8.6244   -4.4397    3.2428 H           1 ACE       0.1839
     60 H23         6.7410   -4.4142    4.9085 H           1 ACE       0.1891
     61 H24         4.9836   -4.3763    6.3720 H           1 ACE       0.0828
     62 H25         6.5923   -6.9686    6.5632 H           1 ACE       0.0551
     63 H26         5.6437   -6.4262    5.1817 H           1 ACE       0.0551
     64 H27         2.6934   -7.7742    6.5028 H           1 ACE       0.1814
     65 H28         3.4030   -7.0009    5.1764 H           1 ACE       0.1814
     66 H29         5.1777   -4.0989    9.8238 H           1 ACE       0.1815
     67 H30         4.2503   -3.8694    8.4477 H           1 ACE       0.1815
@<TRIPOS>BOND
     1     1     2   2
     2     1     3   1
     3     4     1  am
     4     5     4   1
     5     6     5   1
     6     5     8   1
     7     6     7   2
     8    26     6  am
     9     8     9   1
    10     9    10  ar
    11     9    11  ar
    12    10    12  ar
    13    11    13  ar
    14    12    14  ar
    15    13    14  ar
    16    14    15   1
    17    15    16   1
    18    16    17  ar
    19    16    18  ar
    20    16    19  ar
    21    27    20   2
    22    22    21   1
    23    23    21   1
    24    24    22   1
    25    25    23   1
    26    28    24   1
    27    28    25   1
    28    28    26   1
    29    27    28   1
    30    27    29  am
    31    29    30   1
    32    30    31   1
    33    30    33   1
    34    31    32   2
    35    31    37  am
    36    33    34   1
    37    34    35   2
    38    34    36  am
    39     3    38   1
    40     3    39   1
    41     3    40   1
    42     4    41   1
    43     5    42   1
    44     8    43   1
    45     8    44   1
    46    10    45   1
    47    11    46   1
    48    12    47   1
    49    13    48   1
    50    21    49   1
    51    21    50   1
    52    22    51   1
    53    22    52   1
    54    23    53   1
    55    23    54   1
    56    24    55   1
    57    24    56   1
    58    25    57   1
    59    25    58   1
    60    26    59   1
    61    29    60   1
    62    30    61   1
    63    33    62   1
    64    33    63   1
    65    36    64   1
    66    36    65   1
    67    37    66   1
    68    37    67   1
@<TRIPOS>SUBSTRUCTURE
     1  ACE      1

