@<TRIPOS>MOLECULE
3s8o_ligand_029
    67    68
SMALL
GAST_HUCK
****
This file was generated by PARSER (from files_GN.cpp)

@<TRIPOS>ATOM
      1 C           6.2057   -8.4386    5.7575 C.2         1 ACE       0.1753
      2 O           7.4300   -8.3935    5.8362 O.2         1 ACE      -0.3972
      3 CH3         5.4360   -8.1789    6.9429 C.3         1 ACE       0.0258
      4 N           5.5922   -8.7171    4.6105 N.am        1 ACE      -0.2628
      5 CA          6.2176   -8.9871    3.3437 C.3         1 ACE       0.1465
      6 C           7.3018   -8.0751    2.9893 C.2         1 ACE       0.2045
      7 O           7.2482   -6.8885    3.3137 O.2         1 ACE      -0.3944
      8 CB          5.1491   -9.0982    2.1925 C.3         1 ACE       0.0400
      9 CG          3.9065   -8.2747    2.2863 C.ar        1 ACE      -0.0004
     10 CD1         3.9293   -6.9483    2.7864 C.ar        1 ACE      -0.0239
     11 CD2         2.6598   -8.7967    1.8590 C.ar        1 ACE      -0.0239
     12 CE1         2.7387   -6.2121    2.9475 C.ar        1 ACE       0.0115
     13 CE2         1.4746   -8.0497    1.9888 C.ar        1 ACE       0.0115
     14 CZ          1.5003   -6.7695    2.5789 C.ar        1 ACE       0.1728
     15 OH          0.3606   -6.0232    2.7180 O.3         1 ACE      -0.2040
     16 P          -0.4087   -6.2774    4.0481 P.3         1 ACE       0.1348
     17 O1P         0.4413   -6.3213    5.2139 O.co2       1 ACE      -0.6653
     18 O2P        -1.3470   -5.1985    4.2335 O.co2       1 ACE      -0.6653
     19 O3P        -1.1898   -7.4905    3.9685 O.co2       1 ACE      -0.6653
     20 O          11.5529   -8.8989    2.4488 O.2         1 ACE      -0.3419
     21 CD          8.5229   -6.8266   -0.9295 C.3         1 ACE      -0.0532
     22 CG          8.3076   -6.0454    0.3917 C.3         1 ACE      -0.0516
     23 CE          8.6872   -8.3474   -0.6821 C.3         1 ACE      -0.0516
     24 CB          9.4055   -6.3867    1.4344 C.3         1 ACE      -0.0199
     25 CH          9.7826   -8.6458    0.3772 C.3         1 ACE      -0.0199
     26 N           8.3397   -8.5568    2.3066 N.am        1 ACE      -0.2738
     27 C          10.6118   -8.1499    2.7157 C.2         1 ACE       0.2267
     28 CA          9.5194   -7.9227    1.7560 C.3         1 ACE       0.1331
     29 N          10.6261   -7.4886    3.8752 N.am        1 ACE      -0.2608
     30 CA         11.7236   -7.3601    4.7983 C.3         1 ACE       0.1474
     31 C          12.5865   -6.2643    4.3551 C.2         1 ACE       0.2017
     32 O          12.1436   -5.1174    4.3520 O.2         1 ACE      -0.3945
     33 CB         12.4613   -8.7018    5.1149 C.3         1 ACE       0.0774
     34 CG         11.6438   -9.7246    5.7471 C.2         1 ACE       0.1781
     35 OD1        10.9576   -9.4537    6.7210 O.2         1 ACE      -0.3970
     36 ND2        11.6930  -10.9870    5.3656 N.am        1 ACE      -0.3007
     37 N          13.8311   -6.4103    3.9540 N.am        1 ACE      -0.2988
     38 H1          4.3591   -8.2644    6.7592 H           1 ACE       0.0467
     39 H2          5.6387   -7.1637    7.3035 H           1 ACE       0.0467
     40 H3          5.7076   -8.8919    7.7282 H           1 ACE       0.0467
     41 H4          4.6300   -8.7322    4.6449 H           1 ACE       0.1885
     42 H5          6.6713   -9.9779    3.4549 H           1 ACE       0.0840
     43 H6          4.8607  -10.1542    2.1350 H           1 ACE       0.0584
     44 H7          5.6023   -8.8702    1.2223 H           1 ACE       0.0584
     45 H8          4.8088   -6.5193    3.0691 H           1 ACE       0.0703
     46 H9          2.6062   -9.7265    1.4407 H           1 ACE       0.0703
     47 H10         2.7804   -5.2694    3.3471 H           1 ACE       0.0736
     48 H11         0.5890   -8.4495    1.6698 H           1 ACE       0.0736
     49 H12         9.4173   -6.4444   -1.4270 H           1 ACE       0.0265
     50 H13         7.6719   -6.6550   -1.5931 H           1 ACE       0.0265
     51 H14         7.3201   -6.2748    0.7990 H           1 ACE       0.0265
     52 H15         8.3374   -4.9743    0.1821 H           1 ACE       0.0265
     53 H16         8.9529   -8.8350   -1.6221 H           1 ACE       0.0265
     54 H17         7.7345   -8.7643   -0.3499 H           1 ACE       0.0265
     55 H18         9.2190   -5.8053    2.3384 H           1 ACE       0.0277
     56 H19        10.3670   -6.0310    1.0408 H           1 ACE       0.0277
     57 H20        10.7454   -8.3232   -0.0318 H           1 ACE       0.0277
     58 H21         9.8424   -9.7292    0.5223 H           1 ACE       0.0277
     59 H22         8.2913   -9.5113    2.1409 H           1 ACE       0.1839
     60 H23         9.8413   -6.9560    4.0814 H           1 ACE       0.1891
     61 H24        11.2820   -7.0277    5.7478 H           1 ACE       0.0828
     62 H25        13.2954   -8.4794    5.7899 H           1 ACE       0.0551
     63 H26        12.8997   -9.1032    4.1920 H           1 ACE       0.0551
     64 H27        11.1735  -11.6537    5.8423 H           1 ACE       0.1814
     65 H28        12.2718  -11.2636    4.6334 H           1 ACE       0.1814
     66 H29        14.3491   -5.6341    3.6910 H           1 ACE       0.1815
     67 H30        14.2378   -7.2915    3.9205 H           1 ACE       0.1815
@<TRIPOS>BOND
     1     1     2   2
     2     1     3   1
     3     4     1  am
     4     5     4   1
     5     6     5   1
     6     5     8   1
     7     6     7   2
     8    26     6  am
     9     8     9   1
    10     9    10  ar
    11     9    11  ar
    12    10    12  ar
    13    11    13  ar
    14    12    14  ar
    15    13    14  ar
    16    14    15   1
    17    15    16   1
    18    16    17  ar
    19    16    18  ar
    20    16    19  ar
    21    27    20   2
    22    22    21   1
    23    23    21   1
    24    24    22   1
    25    25    23   1
    26    28    24   1
    27    28    25   1
    28    28    26   1
    29    27    28   1
    30    27    29  am
    31    29    30   1
    32    30    31   1
    33    30    33   1
    34    31    32   2
    35    31    37  am
    36    33    34   1
    37    34    35   2
    38    34    36  am
    39     3    38   1
    40     3    39   1
    41     3    40   1
    42     4    41   1
    43     5    42   1
    44     8    43   1
    45     8    44   1
    46    10    45   1
    47    11    46   1
    48    12    47   1
    49    13    48   1
    50    21    49   1
    51    21    50   1
    52    22    51   1
    53    22    52   1
    54    23    53   1
    55    23    54   1
    56    24    55   1
    57    24    56   1
    58    25    57   1
    59    25    58   1
    60    26    59   1
    61    29    60   1
    62    30    61   1
    63    33    62   1
    64    33    63   1
    65    36    64   1
    66    36    65   1
    67    37    66   1
    68    37    67   1
@<TRIPOS>SUBSTRUCTURE
     1  ACE      1

