@<TRIPOS>MOLECULE
3s8o_ligand_058
    67    68
SMALL
GAST_HUCK
****
This file was generated by PARSER (from files_GN.cpp)

@<TRIPOS>ATOM
      1 C          10.9645   -6.4748   -1.3675 C.2         1 ACE       0.1753
      2 O          11.5989   -7.1790   -0.5906 O.2         1 ACE      -0.3972
      3 CH3        10.3548   -5.2688   -0.8549 C.3         1 ACE       0.0258
      4 N          10.7688   -6.8337   -2.6320 N.am        1 ACE      -0.2628
      5 CA         11.1548   -8.0850   -3.2425 C.3         1 ACE       0.1465
      6 C          12.6128   -8.1960   -3.2821 C.2         1 ACE       0.2045
      7 O          13.1417   -9.0836   -2.6294 O.2         1 ACE      -0.3944
      8 CB         10.4732   -8.1956   -4.6463 C.3         1 ACE       0.0400
      9 CG         10.3555   -9.5147   -5.3453 C.ar        1 ACE      -0.0004
     10 CD1         9.6565   -9.5471   -6.5756 C.ar        1 ACE      -0.0239
     11 CD2        10.8573  -10.7384   -4.8366 C.ar        1 ACE      -0.0239
     12 CE1         9.4061  -10.7594   -7.2406 C.ar        1 ACE       0.0115
     13 CE2        10.6208  -11.9540   -5.5105 C.ar        1 ACE       0.0115
     14 CZ          9.8935  -11.9748   -6.7178 C.ar        1 ACE       0.1728
     15 OH          9.5148  -13.1623   -7.2781 O.3         1 ACE      -0.2040
     16 P          10.3747  -13.6211   -8.4869 P.3         1 ACE       0.1348
     17 O1P        10.4266  -12.6149   -9.5252 O.co2       1 ACE      -0.6653
     18 O2P        11.7216  -13.9828   -8.1155 O.co2       1 ACE      -0.6653
     19 O3P         9.7472  -14.7860   -9.0662 O.co2       1 ACE      -0.6653
     20 O          14.9326   -6.0017   -2.1271 O.2         1 ACE      -0.3419
     21 CD         15.6385   -9.3578   -6.0852 C.3         1 ACE      -0.0532
     22 CG         14.7022   -8.2139   -6.5330 C.3         1 ACE      -0.0516
     23 CE         15.5068   -9.6134   -4.5635 C.3         1 ACE      -0.0516
     24 CB         14.9508   -6.9214   -5.7048 C.3         1 ACE      -0.0199
     25 CH         15.7031   -8.3134   -3.7385 C.3         1 ACE      -0.0199
     26 N          13.3207   -7.2997   -3.9611 N.am        1 ACE      -0.2738
     27 C          15.0765   -5.9333   -3.3433 C.2         1 ACE       0.2267
     28 CA         14.7476   -7.1228   -4.1534 C.3         1 ACE       0.1331
     29 N          15.4593   -4.7758   -3.8884 N.am        1 ACE      -0.2608
     30 CA         15.8579   -3.5254   -3.2827 C.3         1 ACE       0.1474
     31 C          17.3036   -3.4144   -3.4279 C.2         1 ACE       0.2017
     32 O          17.7998   -2.5523   -4.1407 O.2         1 ACE      -0.3945
     33 CB         15.4367   -3.1850   -1.8167 C.3         1 ACE       0.0774
     34 CG         14.0141   -3.3115   -1.5769 C.2         1 ACE       0.1781
     35 OD1        13.5818   -4.2849   -0.9745 O.2         1 ACE      -0.3970
     36 ND2        13.1684   -2.3559   -1.9326 N.am        1 ACE      -0.3007
     37 N          18.1192   -4.2221   -2.7830 N.am        1 ACE      -0.2988
     38 H1          9.8292   -4.7116   -1.6358 H           1 ACE       0.0467
     39 H2         11.1152   -4.6138   -0.4210 H           1 ACE       0.0467
     40 H3          9.6331   -5.5263   -0.0727 H           1 ACE       0.0467
     41 H4         10.2437   -6.2270   -3.1737 H           1 ACE       0.1885
     42 H5         10.7246   -8.8811   -2.6267 H           1 ACE       0.0840
     43 H6         10.9539   -7.4926   -5.3371 H           1 ACE       0.0584
     44 H7          9.4454   -7.8403   -4.5140 H           1 ACE       0.0584
     45 H8          9.2755   -8.6859   -6.9733 H           1 ACE       0.0703
     46 H9         11.3657  -10.7707   -3.9521 H           1 ACE       0.0703
     47 H10         8.8445  -10.7571   -8.0930 H           1 ACE       0.0736
     48 H11        10.9503  -12.8323   -5.1056 H           1 ACE       0.0736
     49 H12        16.6720   -9.1005   -6.3222 H           1 ACE       0.0265
     50 H13        15.3904  -10.2683   -6.6268 H           1 ACE       0.0265
     51 H14        13.6624   -8.5256   -6.4117 H           1 ACE       0.0265
     52 H15        14.8669   -8.0027   -7.5884 H           1 ACE       0.0265
     53 H16        16.2609  -10.3449   -4.2553 H           1 ACE       0.0265
     54 H17        14.5239  -10.0423   -4.3498 H           1 ACE       0.0265
     55 H18        14.2773   -6.1406   -6.0769 H           1 ACE       0.0277
     56 H19        15.9730   -6.5833   -5.9028 H           1 ACE       0.0277
     57 H20        16.7442   -7.9909   -3.8731 H           1 ACE       0.0277
     58 H21        15.5977   -8.5525   -2.6776 H           1 ACE       0.0277
     59 H22        12.7861   -6.6022   -4.3694 H           1 ACE       0.1839
     60 H23        15.5224   -4.7665   -4.8499 H           1 ACE       0.1891
     61 H24        15.3961   -2.7564   -3.9114 H           1 ACE       0.0828
     62 H25        15.7107   -2.1426   -1.5865 H           1 ACE       0.0551
     63 H26        16.0013   -3.8073   -1.1085 H           1 ACE       0.0551
     64 H27        12.2270   -2.4467   -1.7326 H           1 ACE       0.1814
     65 H28        13.4978   -1.5551   -2.3784 H           1 ACE       0.1814
     66 H29        19.0830   -4.1254   -2.8829 H           1 ACE       0.1815
     67 H30        17.7589   -4.9117   -2.1971 H           1 ACE       0.1815
@<TRIPOS>BOND
     1     1     2   2
     2     1     3   1
     3     4     1  am
     4     5     4   1
     5     6     5   1
     6     5     8   1
     7     6     7   2
     8    26     6  am
     9     8     9   1
    10     9    10  ar
    11     9    11  ar
    12    10    12  ar
    13    11    13  ar
    14    12    14  ar
    15    13    14  ar
    16    14    15   1
    17    15    16   1
    18    16    17  ar
    19    16    18  ar
    20    16    19  ar
    21    27    20   2
    22    22    21   1
    23    23    21   1
    24    24    22   1
    25    25    23   1
    26    28    24   1
    27    28    25   1
    28    28    26   1
    29    27    28   1
    30    27    29  am
    31    29    30   1
    32    30    31   1
    33    30    33   1
    34    31    32   2
    35    31    37  am
    36    33    34   1
    37    34    35   2
    38    34    36  am
    39     3    38   1
    40     3    39   1
    41     3    40   1
    42     4    41   1
    43     5    42   1
    44     8    43   1
    45     8    44   1
    46    10    45   1
    47    11    46   1
    48    12    47   1
    49    13    48   1
    50    21    49   1
    51    21    50   1
    52    22    51   1
    53    22    52   1
    54    23    53   1
    55    23    54   1
    56    24    55   1
    57    24    56   1
    58    25    57   1
    59    25    58   1
    60    26    59   1
    61    29    60   1
    62    30    61   1
    63    33    62   1
    64    33    63   1
    65    36    64   1
    66    36    65   1
    67    37    66   1
    68    37    67   1
@<TRIPOS>SUBSTRUCTURE
     1  ACE      1

