@<TRIPOS>MOLECULE
3s8o_ligand_011
    67    68
SMALL
GAST_HUCK
****
This file was generated by PARSER (from files_GN.cpp)

@<TRIPOS>ATOM
      1 C           9.8691  -10.1445   -8.4271 C.2         1 ACE       0.1753
      2 O          10.7260  -10.4331   -9.2513 O.2         1 ACE      -0.3972
      3 CH3         9.1493   -8.8962   -8.5819 C.3         1 ACE       0.0258
      4 N           9.5102  -10.9684   -7.4521 N.am        1 ACE      -0.2628
      5 CA          9.9591  -12.2994   -7.1047 C.3         1 ACE       0.1465
      6 C          10.7601  -12.2929   -5.8692 C.2         1 ACE       0.2045
      7 O          11.1689  -13.3585   -5.4193 O.2         1 ACE      -0.3944
      8 CB         10.5556  -13.1656   -8.2762 C.3         1 ACE       0.0400
      9 CG          9.7619  -13.3458   -9.5363 C.ar        1 ACE      -0.0004
     10 CD1        10.3047  -14.1284  -10.5927 C.ar        1 ACE      -0.0239
     11 CD2         8.4798  -12.7801   -9.7401 C.ar        1 ACE      -0.0239
     12 CE1         9.5948  -14.3314  -11.7921 C.ar        1 ACE       0.0115
     13 CE2         7.7792  -12.9597  -10.9439 C.ar        1 ACE       0.0115
     14 CZ          8.3159  -13.7653  -11.9669 C.ar        1 ACE       0.1728
     15 OH          7.5972  -13.9365  -13.1213 O.3         1 ACE      -0.2040
     16 P           6.6519  -15.1727  -13.1144 P.3         1 ACE       0.1348
     17 O1P         6.2402  -15.6510  -11.8182 O.co2       1 ACE      -0.6653
     18 O2P         5.4473  -14.8027  -13.8143 O.co2       1 ACE      -0.6653
     19 O3P         7.2435  -16.2595  -13.8533 O.co2       1 ACE      -0.6653
     20 O          13.3947  -12.0457   -4.8175 O.2         1 ACE      -0.3419
     21 CD         10.7086   -9.5940   -1.2251 C.3         1 ACE      -0.0532
     22 CG         10.8118  -11.1355   -1.3092 C.3         1 ACE      -0.0516
     23 CE         11.6683   -8.8840   -2.2121 C.3         1 ACE      -0.0516
     24 CB         10.6277  -11.6447   -2.7629 C.3         1 ACE      -0.0199
     25 CH         11.4982   -9.4068   -3.6623 C.3         1 ACE      -0.0199
     26 N          10.9424  -11.1766   -5.1591 N.am        1 ACE      -0.2738
     27 C          12.9419  -11.4835   -3.8263 C.2         1 ACE       0.2267
     28 CA         11.5493  -10.9685   -3.8492 C.3         1 ACE       0.1331
     29 N          13.7251  -11.3802   -2.7532 N.am        1 ACE      -0.2608
     30 CA         15.0304  -11.9628   -2.5559 C.3         1 ACE       0.1474
     31 C          15.5016  -11.6469   -1.2112 C.2         1 ACE       0.2017
     32 O          15.7677  -10.4947   -0.8975 O.2         1 ACE      -0.3945
     33 CB         16.1068  -11.5754   -3.6188 C.3         1 ACE       0.0774
     34 CG         16.5751  -10.2000   -3.5787 C.2         1 ACE       0.1781
     35 OD1        15.9481   -9.3133   -4.1372 O.2         1 ACE      -0.3970
     36 ND2        17.6568   -9.8768   -2.8978 N.am        1 ACE      -0.3007
     37 N          15.6905  -12.5674   -0.2961 N.am        1 ACE      -0.2988
     38 H1          8.4892   -8.7196   -7.7284 H           1 ACE       0.0467
     39 H2          8.5374   -8.9269   -9.4909 H           1 ACE       0.0467
     40 H3          9.8481   -8.0573   -8.6560 H           1 ACE       0.0467
     41 H4          8.8460  -10.6008   -6.8438 H           1 ACE       0.1885
     42 H5          9.0425  -12.8209   -6.8149 H           1 ACE       0.0840
     43 H6         10.7321  -14.1778   -7.8911 H           1 ACE       0.0584
     44 H7         11.5272  -12.7563   -8.5508 H           1 ACE       0.0584
     45 H8         11.2286  -14.5558  -10.4882 H           1 ACE       0.0703
     46 H9          8.0229  -12.2319   -9.0154 H           1 ACE       0.0703
     47 H10        10.0095  -14.8937  -12.5432 H           1 ACE       0.0736
     48 H11         6.8683  -12.5142  -11.0711 H           1 ACE       0.0736
     49 H12        10.9305   -9.2723   -0.2022 H           1 ACE       0.0265
     50 H13         9.6800   -9.2908   -1.4492 H           1 ACE       0.0265
     51 H14        10.0341  -11.5747   -0.6755 H           1 ACE       0.0265
     52 H15        11.7716  -11.4684   -0.9176 H           1 ACE       0.0265
     53 H16        12.6985   -9.0044   -1.8884 H           1 ACE       0.0265
     54 H17        11.4605   -7.8087   -2.1916 H           1 ACE       0.0265
     55 H18         9.5764  -11.4784   -3.0265 H           1 ACE       0.0277
     56 H19        10.7792  -12.7275   -2.7541 H           1 ACE       0.0277
     57 H20        12.2520   -8.9345   -4.2963 H           1 ACE       0.0277
     58 H21        10.5235   -9.0292   -3.9974 H           1 ACE       0.0277
     59 H22        10.5625  -10.3792   -5.5618 H           1 ACE       0.1839
     60 H23        13.3520  -10.9229   -1.9898 H           1 ACE       0.1891
     61 H24        14.9043  -13.0506   -2.6281 H           1 ACE       0.0828
     62 H25        15.7150  -11.7791   -4.6155 H           1 ACE       0.0551
     63 H26        16.9645  -12.2448   -3.4955 H           1 ACE       0.0551
     64 H27        17.9490   -8.9515   -2.8501 H           1 ACE       0.1814
     65 H28        18.1636  -10.5650   -2.4322 H           1 ACE       0.1814
     66 H29        16.0027  -12.3154    0.5879 H           1 ACE       0.1815
     67 H30        15.5107  -13.4975   -0.4932 H           1 ACE       0.1815
@<TRIPOS>BOND
     1     1     2   2
     2     1     3   1
     3     4     1  am
     4     5     4   1
     5     6     5   1
     6     5     8   1
     7     6     7   2
     8    26     6  am
     9     8     9   1
    10     9    10  ar
    11     9    11  ar
    12    10    12  ar
    13    11    13  ar
    14    12    14  ar
    15    13    14  ar
    16    14    15   1
    17    15    16   1
    18    16    17  ar
    19    16    18  ar
    20    16    19  ar
    21    27    20   2
    22    22    21   1
    23    23    21   1
    24    24    22   1
    25    25    23   1
    26    28    24   1
    27    28    25   1
    28    28    26   1
    29    27    28   1
    30    27    29  am
    31    29    30   1
    32    30    31   1
    33    30    33   1
    34    31    32   2
    35    31    37  am
    36    33    34   1
    37    34    35   2
    38    34    36  am
    39     3    38   1
    40     3    39   1
    41     3    40   1
    42     4    41   1
    43     5    42   1
    44     8    43   1
    45     8    44   1
    46    10    45   1
    47    11    46   1
    48    12    47   1
    49    13    48   1
    50    21    49   1
    51    21    50   1
    52    22    51   1
    53    22    52   1
    54    23    53   1
    55    23    54   1
    56    24    55   1
    57    24    56   1
    58    25    57   1
    59    25    58   1
    60    26    59   1
    61    29    60   1
    62    30    61   1
    63    33    62   1
    64    33    63   1
    65    36    64   1
    66    36    65   1
    67    37    66   1
    68    37    67   1
@<TRIPOS>SUBSTRUCTURE
     1  ACE      1

