@<TRIPOS>MOLECULE
3s8o_ligand_086
    67    68
SMALL
GAST_HUCK
****
This file was generated by PARSER (from files_GN.cpp)

@<TRIPOS>ATOM
      1 C           9.4883   -4.3128    4.1886 C.2         1 ACE       0.1753
      2 O           8.4034   -3.8572    3.8478 O.2         1 ACE      -0.3972
      3 CH3         9.9413   -4.0774    5.5423 C.3         1 ACE       0.0258
      4 N          10.2233   -5.0568    3.3705 N.am        1 ACE      -0.2628
      5 CA          9.8849   -5.5097    2.0428 C.3         1 ACE       0.1465
      6 C           8.6353   -6.2780    2.0752 C.2         1 ACE       0.2045
      7 O           8.6130   -7.2855    2.7698 O.2         1 ACE      -0.3944
      8 CB         11.1088   -6.3144    1.4698 C.3         1 ACE       0.0400
      9 CG         10.8095   -7.3245    0.4132 C.ar        1 ACE      -0.0004
     10 CD1        10.9493   -7.0290   -0.9601 C.ar        1 ACE      -0.0239
     11 CD2        10.3401   -8.6111    0.7769 C.ar        1 ACE      -0.0239
     12 CE1        10.5925   -7.9771   -1.9433 C.ar        1 ACE       0.0115
     13 CE2         9.9630   -9.5474   -0.1990 C.ar        1 ACE       0.0115
     14 CZ         10.0905   -9.2428   -1.5686 C.ar        1 ACE       0.1728
     15 OH          9.5825  -10.0923   -2.5208 O.3         1 ACE      -0.2040
     16 P          10.5508  -11.2208   -2.9653 P.3         1 ACE       0.1348
     17 O1P        11.6085  -10.7337   -3.8215 O.co2       1 ACE      -0.6653
     18 O2P        11.1152  -11.9501   -1.8546 O.co2       1 ACE      -0.6653
     19 O3P         9.7809  -12.1782   -3.7243 O.co2       1 ACE      -0.6653
     20 O           6.0741   -7.7185    3.1593 O.2         1 ACE      -0.3419
     21 CD          6.0703   -6.6199   -1.8816 C.3         1 ACE      -0.0532
     22 CG          6.9578   -7.6085   -1.0839 C.3         1 ACE      -0.0516
     23 CE          5.9217   -5.2778   -1.1257 C.3         1 ACE      -0.0516
     24 CB          6.4224   -7.8224    0.3565 C.3         1 ACE      -0.0199
     25 CH          5.4070   -5.4953    0.3238 C.3         1 ACE      -0.0199
     26 N           7.5642   -5.8612    1.3987 N.am        1 ACE      -0.2738
     27 C           5.6185   -6.8003    2.4874 C.2         1 ACE       0.2267
     28 CA          6.2694   -6.4959    1.1903 C.3         1 ACE       0.1331
     29 N           4.5594   -6.1410    2.9619 N.am        1 ACE      -0.2608
     30 CA          3.8924   -6.3288    4.2251 C.3         1 ACE       0.1474
     31 C           4.7959   -5.9299    5.3062 C.2         1 ACE       0.2017
     32 O           5.5430   -6.7384    5.8363 O.2         1 ACE      -0.3945
     33 CB          3.2495   -7.7530    4.3497 C.3         1 ACE       0.0774
     34 CG          2.6958   -8.0486    5.6581 C.2         1 ACE       0.1781
     35 OD1         3.4483   -8.2173    6.6102 O.2         1 ACE      -0.3970
     36 ND2         1.4056   -8.2029    5.8517 N.am        1 ACE      -0.3007
     37 N           4.9572   -4.6634    5.6323 N.am        1 ACE      -0.2988
     38 H1         10.9124   -4.5466    5.7331 H           1 ACE       0.0467
     39 H2          9.2182   -4.4963    6.2474 H           1 ACE       0.0467
     40 H3         10.0341   -3.0033    5.7210 H           1 ACE       0.0467
     41 H4         11.0727   -5.3640    3.7272 H           1 ACE       0.1885
     42 H5          9.7511   -4.6216    1.4095 H           1 ACE       0.0840
     43 H6         11.6226   -6.8300    2.2864 H           1 ACE       0.0584
     44 H7         11.8354   -5.5963    1.0790 H           1 ACE       0.0584
     45 H8         11.2871   -6.1120   -1.2577 H           1 ACE       0.0703
     46 H9         10.2395   -8.8650    1.7620 H           1 ACE       0.0703
     47 H10        10.6640   -7.7299   -2.9323 H           1 ACE       0.0736
     48 H11         9.5744  -10.4516    0.0914 H           1 ACE       0.0736
     49 H12         5.0808   -7.0608   -2.0457 H           1 ACE       0.0265
     50 H13         6.5205   -6.4377   -2.8601 H           1 ACE       0.0265
     51 H14         7.9759   -7.2177   -1.0300 H           1 ACE       0.0265
     52 H15         6.9937   -8.5683   -1.6035 H           1 ACE       0.0265
     53 H16         5.2149   -4.6415   -1.6645 H           1 ACE       0.0265
     54 H17         6.8851   -4.7622   -1.1096 H           1 ACE       0.0265
     55 H18         7.1067   -8.5032    0.8693 H           1 ACE       0.0277
     56 H19         5.4513   -8.3300    0.2890 H           1 ACE       0.0277
     57 H20         4.3793   -5.8684    0.2544 H           1 ACE       0.0277
     58 H21         5.3670   -4.5183    0.8163 H           1 ACE       0.0277
     59 H22         7.6798   -5.0122    0.9437 H           1 ACE       0.1839
     60 H23         4.2026   -5.4319    2.4074 H           1 ACE       0.1891
     61 H24         3.0579   -5.6194    4.2228 H           1 ACE       0.0828
     62 H25         3.9925   -8.5191    4.1293 H           1 ACE       0.0551
     63 H26         2.4671   -7.8485    3.5885 H           1 ACE       0.0551
     64 H27         1.0742   -8.4334    6.7344 H           1 ACE       0.1814
     65 H28         0.7824   -8.0936    5.1128 H           1 ACE       0.1814
     66 H29         5.6133   -4.4158    6.3028 H           1 ACE       0.1815
     67 H30         4.4308   -3.9736    5.1977 H           1 ACE       0.1815
@<TRIPOS>BOND
     1     1     2   2
     2     1     3   1
     3     4     1  am
     4     5     4   1
     5     6     5   1
     6     5     8   1
     7     6     7   2
     8    26     6  am
     9     8     9   1
    10     9    10  ar
    11     9    11  ar
    12    10    12  ar
    13    11    13  ar
    14    12    14  ar
    15    13    14  ar
    16    14    15   1
    17    15    16   1
    18    16    17  ar
    19    16    18  ar
    20    16    19  ar
    21    27    20   2
    22    22    21   1
    23    23    21   1
    24    24    22   1
    25    25    23   1
    26    28    24   1
    27    28    25   1
    28    28    26   1
    29    27    28   1
    30    27    29  am
    31    29    30   1
    32    30    31   1
    33    30    33   1
    34    31    32   2
    35    31    37  am
    36    33    34   1
    37    34    35   2
    38    34    36  am
    39     3    38   1
    40     3    39   1
    41     3    40   1
    42     4    41   1
    43     5    42   1
    44     8    43   1
    45     8    44   1
    46    10    45   1
    47    11    46   1
    48    12    47   1
    49    13    48   1
    50    21    49   1
    51    21    50   1
    52    22    51   1
    53    22    52   1
    54    23    53   1
    55    23    54   1
    56    24    55   1
    57    24    56   1
    58    25    57   1
    59    25    58   1
    60    26    59   1
    61    29    60   1
    62    30    61   1
    63    33    62   1
    64    33    63   1
    65    36    64   1
    66    36    65   1
    67    37    66   1
    68    37    67   1
@<TRIPOS>SUBSTRUCTURE
     1  ACE      1

