@<TRIPOS>MOLECULE
3s8o_ligand_041
    67    68
SMALL
GAST_HUCK
****
This file was generated by PARSER (from files_GN.cpp)

@<TRIPOS>ATOM
      1 C           7.8781   -7.8161   -2.3134 C.2         1 ACE       0.1753
      2 O           7.3737   -8.9327   -2.3045 O.2         1 ACE      -0.3972
      3 CH3         7.8811   -7.0829   -3.5553 C.3         1 ACE       0.0258
      4 N           8.4650   -7.2930   -1.2405 N.am        1 ACE      -0.2628
      5 CA          8.6621   -7.9261    0.0387 C.3         1 ACE       0.1465
      6 C           8.2147   -7.0245    1.1021 C.2         1 ACE       0.2045
      7 O           8.9385   -6.8138    2.0663 O.2         1 ACE      -0.3944
      8 CB         10.1656   -8.3402    0.1464 C.3         1 ACE       0.0400
      9 CG         10.6296   -9.2474   -0.9417 C.ar        1 ACE      -0.0004
     10 CD1        10.2977  -10.6200   -0.9365 C.ar        1 ACE      -0.0239
     11 CD2        11.4087   -8.7428   -2.0090 C.ar        1 ACE      -0.0239
     12 CE1        10.7643  -11.4756   -1.9519 C.ar        1 ACE       0.0115
     13 CE2        11.8722   -9.5943   -3.0263 C.ar        1 ACE       0.0115
     14 CZ         11.5463  -10.9665   -3.0112 C.ar        1 ACE       0.1728
     15 OH         12.0676  -11.8169   -3.9526 O.3         1 ACE      -0.2040
     16 P          11.2810  -11.8503   -5.2906 P.3         1 ACE       0.1348
     17 O1P        11.9080  -12.8571   -6.1212 O.co2       1 ACE      -0.6653
     18 O2P         9.9135  -12.2811   -5.1033 O.co2       1 ACE      -0.6653
     19 O3P        11.3280  -10.5990   -6.0136 O.co2       1 ACE      -0.6653
     20 O           4.0849   -5.8393    2.1527 O.2         1 ACE      -0.3419
     21 CD          7.8881   -2.8360    1.1630 C.3         1 ACE      -0.0532
     22 CG          7.0466   -3.5706    0.0890 C.3         1 ACE      -0.0516
     23 CE          8.3994   -3.8215    2.2492 C.3         1 ACE      -0.0516
     24 CB          5.8853   -4.3616    0.7438 C.3         1 ACE      -0.0199
     25 CH          7.2395   -4.6566    2.8606 C.3         1 ACE      -0.0199
     26 N           7.0148   -6.4635    1.0122 N.am        1 ACE      -0.2738
     27 C           5.2389   -6.0866    2.4864 C.2         1 ACE       0.2267
     28 CA          6.3675   -5.4312    1.7998 C.3         1 ACE       0.1331
     29 N           5.4549   -6.9671    3.4640 N.am        1 ACE      -0.2608
     30 CA          4.4485   -7.7025    4.1938 C.3         1 ACE       0.1474
     31 C           4.9533   -8.0390    5.5214 C.2         1 ACE       0.2017
     32 O           4.2542   -7.9194    6.5202 O.2         1 ACE      -0.3945
     33 CB          3.9459   -8.9855    3.4505 C.3         1 ACE       0.0774
     34 CG          3.7344   -8.8348    2.0202 C.2         1 ACE       0.1781
     35 OD1         2.6478   -8.5079    1.5676 O.2         1 ACE      -0.3970
     36 ND2         4.7088   -9.0704    1.1641 N.am        1 ACE      -0.3007
     37 N           6.1688   -8.5151    5.6939 N.am        1 ACE      -0.2988
     38 H1          8.3959   -6.1249   -3.4544 H           1 ACE       0.0467
     39 H2          6.8544   -6.8939   -3.8703 H           1 ACE       0.0467
     40 H3          8.3886   -7.6650   -4.3262 H           1 ACE       0.0467
     41 H4          8.8734   -6.4201   -1.3549 H           1 ACE       0.1885
     42 H5          8.0476   -8.8278    0.1224 H           1 ACE       0.0840
     43 H6         10.3415   -8.8240    1.1105 H           1 ACE       0.0584
     44 H7         10.7775   -7.4334    0.1401 H           1 ACE       0.0584
     45 H8          9.7299  -11.0157   -0.1868 H           1 ACE       0.0703
     46 H9         11.6464   -7.7470   -2.0463 H           1 ACE       0.0703
     47 H10        10.5348  -12.4734   -1.9250 H           1 ACE       0.0736
     48 H11        12.4440   -9.2064   -3.7800 H           1 ACE       0.0736
     49 H12         7.2727   -2.0586    1.6323 H           1 ACE       0.0265
     50 H13         8.7414   -2.3372    0.6853 H           1 ACE       0.0265
     51 H14         7.6922   -4.2578   -0.4658 H           1 ACE       0.0265
     52 H15         6.6462   -2.8435   -0.6221 H           1 ACE       0.0265
     53 H16         8.8844   -3.2371    3.0429 H           1 ACE       0.0265
     54 H17         9.1513   -4.4934    1.8173 H           1 ACE       0.0265
     55 H18         5.3105   -4.8430   -0.0523 H           1 ACE       0.0277
     56 H19         5.2185   -3.6349    1.2131 H           1 ACE       0.0277
     57 H20         6.5979   -3.9697    3.4171 H           1 ACE       0.0277
     58 H21         7.6646   -5.3371    3.6016 H           1 ACE       0.0277
     59 H22         6.4995   -6.7614    0.2467 H           1 ACE       0.1839
     60 H23         6.3798   -7.1598    3.6835 H           1 ACE       0.1891
     61 H24         3.5745   -7.0560    4.3345 H           1 ACE       0.0828
     62 H25         2.9970   -9.2779    3.9086 H           1 ACE       0.0551
     63 H26         4.6354   -9.8224    3.5989 H           1 ACE       0.0551
     64 H27         4.5542   -8.9644    0.2107 H           1 ACE       0.1814
     65 H28         5.5810   -9.3712    1.4758 H           1 ACE       0.1814
     66 H29         6.4784   -8.7399    6.5844 H           1 ACE       0.1815
     67 H30         6.7604   -8.6375    4.9334 H           1 ACE       0.1815
@<TRIPOS>BOND
     1     1     2   2
     2     1     3   1
     3     4     1  am
     4     5     4   1
     5     6     5   1
     6     5     8   1
     7     6     7   2
     8    26     6  am
     9     8     9   1
    10     9    10  ar
    11     9    11  ar
    12    10    12  ar
    13    11    13  ar
    14    12    14  ar
    15    13    14  ar
    16    14    15   1
    17    15    16   1
    18    16    17  ar
    19    16    18  ar
    20    16    19  ar
    21    27    20   2
    22    22    21   1
    23    23    21   1
    24    24    22   1
    25    25    23   1
    26    28    24   1
    27    28    25   1
    28    28    26   1
    29    27    28   1
    30    27    29  am
    31    29    30   1
    32    30    31   1
    33    30    33   1
    34    31    32   2
    35    31    37  am
    36    33    34   1
    37    34    35   2
    38    34    36  am
    39     3    38   1
    40     3    39   1
    41     3    40   1
    42     4    41   1
    43     5    42   1
    44     8    43   1
    45     8    44   1
    46    10    45   1
    47    11    46   1
    48    12    47   1
    49    13    48   1
    50    21    49   1
    51    21    50   1
    52    22    51   1
    53    22    52   1
    54    23    53   1
    55    23    54   1
    56    24    55   1
    57    24    56   1
    58    25    57   1
    59    25    58   1
    60    26    59   1
    61    29    60   1
    62    30    61   1
    63    33    62   1
    64    33    63   1
    65    36    64   1
    66    36    65   1
    67    37    66   1
    68    37    67   1
@<TRIPOS>SUBSTRUCTURE
     1  ACE      1

