@<TRIPOS>MOLECULE
3s8o_ligand_027
    67    68
SMALL
GAST_HUCK
****
This file was generated by PARSER (from files_GN.cpp)

@<TRIPOS>ATOM
      1 C           5.6337   -8.5059    3.6525 C.2         1 ACE       0.1753
      2 O           5.5325   -7.5936    4.4611 O.2         1 ACE      -0.3972
      3 CH3         4.5234   -9.4213    3.5305 C.3         1 ACE       0.0258
      4 N           6.7166   -8.6723    2.9016 N.am        1 ACE      -0.2628
      5 CA          7.9176   -7.8832    2.9173 C.3         1 ACE       0.1465
      6 C           8.0309   -7.2055    1.6222 C.2         1 ACE       0.2045
      7 O           7.8872   -5.9928    1.5873 O.2         1 ACE      -0.3944
      8 CB          9.1584   -8.7895    3.2620 C.3         1 ACE       0.0400
      9 CG         10.1473   -8.1552    4.1800 C.ar        1 ACE      -0.0004
     10 CD1        10.4910   -8.7541    5.4169 C.ar        1 ACE      -0.0239
     11 CD2        10.7655   -6.9320    3.8316 C.ar        1 ACE      -0.0239
     12 CE1        11.4206   -8.1369    6.2801 C.ar        1 ACE       0.0115
     13 CE2        11.6765   -6.3060    4.6993 C.ar        1 ACE       0.0115
     14 CZ         12.0237   -6.9160    5.9261 C.ar        1 ACE       0.1728
     15 OH         12.8393   -6.2551    6.8047 O.3         1 ACE      -0.2040
     16 P          14.3609   -6.4223    6.5509 P.3         1 ACE       0.1348
     17 O1P        14.7550   -6.5557    5.1678 O.co2       1 ACE      -0.6653
     18 O2P        14.9736   -5.1859    6.9836 O.co2       1 ACE      -0.6653
     19 O3P        15.0050   -7.4615    7.3360 O.co2       1 ACE      -0.6653
     20 O           7.1793   -8.6923   -2.5133 O.2         1 ACE      -0.3419
     21 CD         11.2913   -6.4865   -1.1305 C.3         1 ACE      -0.0532
     22 CG         11.0053   -7.9703   -0.7981 C.3         1 ACE      -0.0516
     23 CE         10.1346   -5.5675   -0.6582 C.3         1 ACE      -0.0516
     24 CB          9.6353   -8.4197   -1.3686 C.3         1 ACE      -0.0199
     25 CH          8.7533   -6.0485   -1.1959 C.3         1 ACE      -0.0199
     26 N           8.2225   -7.9276    0.5207 N.am        1 ACE      -0.2738
     27 C           7.1594   -7.9228   -1.5558 C.2         1 ACE       0.2267
     28 CA          8.4138   -7.5555   -0.8692 C.3         1 ACE       0.1331
     29 N           5.9974   -7.3780   -1.1869 N.am        1 ACE      -0.2608
     30 CA          4.7383   -7.5055   -1.8778 C.3         1 ACE       0.1474
     31 C           3.8363   -6.4102   -1.5185 C.2         1 ACE       0.2017
     32 O           3.7859   -5.9804   -0.3756 O.2         1 ACE      -0.3945
     33 CB          4.0872   -8.9286   -1.7454 C.3         1 ACE       0.0774
     34 CG          3.2002   -9.1416   -0.6151 C.2         1 ACE       0.1781
     35 OD1         3.5645   -9.7749    0.3646 O.2         1 ACE      -0.3970
     36 ND2         1.9601   -8.6982   -0.6330 N.am        1 ACE      -0.3007
     37 N           2.9595   -5.9479   -2.3778 N.am        1 ACE      -0.2988
     38 H1          4.7245  -10.2098    2.8010 H           1 ACE       0.0467
     39 H2          3.6309   -8.8756    3.2176 H           1 ACE       0.0467
     40 H3          4.3325   -9.8881    4.4974 H           1 ACE       0.0467
     41 H4          6.7116   -9.4193    2.2849 H           1 ACE       0.1885
     42 H5          7.8371   -7.1192    3.7022 H           1 ACE       0.0840
     43 H6          9.6953   -9.0848    2.3572 H           1 ACE       0.0584
     44 H7          8.8009   -9.7209    3.7075 H           1 ACE       0.0584
     45 H8         10.0665   -9.6345    5.7036 H           1 ACE       0.0703
     46 H9         10.5367   -6.4706    2.9438 H           1 ACE       0.0703
     47 H10        11.6446   -8.5791    7.1773 H           1 ACE       0.0736
     48 H11        12.0814   -5.4081    4.4443 H           1 ACE       0.0736
     49 H12        11.4226   -6.3752   -2.2128 H           1 ACE       0.0265
     50 H13        12.2220   -6.1795   -0.6450 H           1 ACE       0.0265
     51 H14        11.0242   -8.1189    0.2855 H           1 ACE       0.0265
     52 H15        11.7948   -8.5879   -1.2359 H           1 ACE       0.0265
     53 H16        10.3241   -4.5514   -1.0166 H           1 ACE       0.0265
     54 H17        10.1319   -5.5396    0.4327 H           1 ACE       0.0265
     55 H18         9.4827   -9.4755   -1.1143 H           1 ACE       0.0277
     56 H19         9.7082   -8.3665   -2.4635 H           1 ACE       0.0277
     57 H20         8.7654   -5.9149   -2.2840 H           1 ACE       0.0277
     58 H21         7.9744   -5.3827   -0.8123 H           1 ACE       0.0277
     59 H22         8.2053   -8.8873    0.6700 H           1 ACE       0.1839
     60 H23         6.0288   -6.7676   -0.4314 H           1 ACE       0.1891
     61 H24         4.9701   -7.3573   -2.9378 H           1 ACE       0.0828
     62 H25         4.8800   -9.6823   -1.7142 H           1 ACE       0.0551
     63 H26         3.5197   -9.1376   -2.6572 H           1 ACE       0.0551
     64 H27         1.3718   -8.8639    0.1191 H           1 ACE       0.1814
     65 H28         1.6295   -8.2137   -1.4065 H           1 ACE       0.1814
     66 H29         2.3289   -5.2588   -2.1082 H           1 ACE       0.1815
     67 H30         2.9241   -6.2998   -3.2821 H           1 ACE       0.1815
@<TRIPOS>BOND
     1     1     2   2
     2     1     3   1
     3     4     1  am
     4     5     4   1
     5     6     5   1
     6     5     8   1
     7     6     7   2
     8    26     6  am
     9     8     9   1
    10     9    10  ar
    11     9    11  ar
    12    10    12  ar
    13    11    13  ar
    14    12    14  ar
    15    13    14  ar
    16    14    15   1
    17    15    16   1
    18    16    17  ar
    19    16    18  ar
    20    16    19  ar
    21    27    20   2
    22    22    21   1
    23    23    21   1
    24    24    22   1
    25    25    23   1
    26    28    24   1
    27    28    25   1
    28    28    26   1
    29    27    28   1
    30    27    29  am
    31    29    30   1
    32    30    31   1
    33    30    33   1
    34    31    32   2
    35    31    37  am
    36    33    34   1
    37    34    35   2
    38    34    36  am
    39     3    38   1
    40     3    39   1
    41     3    40   1
    42     4    41   1
    43     5    42   1
    44     8    43   1
    45     8    44   1
    46    10    45   1
    47    11    46   1
    48    12    47   1
    49    13    48   1
    50    21    49   1
    51    21    50   1
    52    22    51   1
    53    22    52   1
    54    23    53   1
    55    23    54   1
    56    24    55   1
    57    24    56   1
    58    25    57   1
    59    25    58   1
    60    26    59   1
    61    29    60   1
    62    30    61   1
    63    33    62   1
    64    33    63   1
    65    36    64   1
    66    36    65   1
    67    37    66   1
    68    37    67   1
@<TRIPOS>SUBSTRUCTURE
     1  ACE      1

