@<TRIPOS>MOLECULE
3s8o_ligand_018
    67    68
SMALL
GAST_HUCK
****
This file was generated by PARSER (from files_GN.cpp)

@<TRIPOS>ATOM
      1 C           4.6705   -8.7146    4.4511 C.2         1 ACE       0.1753
      2 O           4.6277   -9.8651    4.0352 O.2         1 ACE      -0.3972
      3 CH3         4.5245   -8.5066    5.8739 C.3         1 ACE       0.0258
      4 N           4.8182   -7.6738    3.6403 N.am        1 ACE      -0.2628
      5 CA          4.9144   -7.6949    2.2015 C.3         1 ACE       0.1465
      6 C           6.2094   -7.1116    1.8632 C.2         1 ACE       0.2045
      7 O           6.4035   -5.9273    2.1236 O.2         1 ACE      -0.3944
      8 CB          3.7265   -6.9376    1.5105 C.3         1 ACE       0.0400
      9 CG          2.4953   -6.8507    2.3430 C.ar        1 ACE      -0.0004
     10 CD1         1.5749   -7.9230    2.3951 C.ar        1 ACE      -0.0239
     11 CD2         2.2640   -5.7146    3.1526 C.ar        1 ACE      -0.0239
     12 CE1         0.4383   -7.8482    3.2193 C.ar        1 ACE       0.0115
     13 CE2         1.1369   -5.6471    3.9876 C.ar        1 ACE       0.0115
     14 CZ          0.1970   -6.7007    4.0034 C.ar        1 ACE       0.1728
     15 OH         -0.8885   -6.6726    4.8379 O.3         1 ACE      -0.2040
     16 P          -2.1526   -5.9984    4.2214 P.3         1 ACE       0.1348
     17 O1P        -3.2929   -6.4949    4.9552 O.co2       1 ACE      -0.6653
     18 O2P        -2.1328   -4.5664    4.4117 O.co2       1 ACE      -0.6653
     19 O3P        -2.3810   -6.3033    2.8302 O.co2       1 ACE      -0.6653
     20 O           9.5386   -5.7834    2.4681 O.2         1 ACE      -0.3419
     21 CD         10.8121   -7.4983   -0.9577 C.3         1 ACE      -0.0532
     22 CG         10.0516   -6.1934   -0.6105 C.3         1 ACE      -0.0516
     23 CE         10.7819   -8.5108    0.2151 C.3         1 ACE      -0.0516
     24 CB          8.6201   -6.4719   -0.0683 C.3         1 ACE      -0.0199
     25 CH          9.3340   -8.7712    0.6979 C.3         1 ACE      -0.0199
     26 N           7.2061   -7.8649    1.4017 N.am        1 ACE      -0.2738
     27 C           9.1536   -6.9453    2.4118 C.2         1 ACE       0.2267
     28 CA          8.5787   -7.4721    1.1516 C.3         1 ACE       0.1331
     29 N           9.1472   -7.7027    3.4997 N.am        1 ACE      -0.2608
     30 CA          9.6009   -7.4341    4.8441 C.3         1 ACE       0.1474
     31 C          10.4750   -6.2807    5.0289 C.2         1 ACE       0.2017
     32 O          11.6474   -6.3140    4.6829 O.2         1 ACE      -0.3945
     33 CB         10.2347   -8.7328    5.4352 C.3         1 ACE       0.0774
     34 CG         11.1195   -9.4500    4.5356 C.2         1 ACE       0.1781
     35 OD1        10.8415   -9.5245    3.3460 O.2         1 ACE      -0.3970
     36 ND2        12.1966  -10.0994    4.9440 N.am        1 ACE      -0.3007
     37 N          10.0225   -5.1362    5.4989 N.am        1 ACE      -0.2988
     38 H1          4.5645   -7.4459    6.1305 H           1 ACE       0.0467
     39 H2          5.3271   -9.0210    6.4057 H           1 ACE       0.0467
     40 H3          3.5643   -8.9095    6.2039 H           1 ACE       0.0467
     41 H4          4.8360   -6.8013    4.0638 H           1 ACE       0.1885
     42 H5          4.8823   -8.7302    1.8333 H           1 ACE       0.0840
     43 H6          3.4832   -7.4345    0.5669 H           1 ACE       0.0584
     44 H7          4.0223   -5.9223    1.2266 H           1 ACE       0.0584
     45 H8          1.7304   -8.7654    1.8384 H           1 ACE       0.0703
     46 H9          2.9308   -4.9376    3.1601 H           1 ACE       0.0703
     47 H10        -0.2194   -8.6281    3.2498 H           1 ACE       0.0736
     48 H11         1.0007   -4.8223    4.5857 H           1 ACE       0.0736
     49 H12        11.8484   -7.2623   -1.2029 H           1 ACE       0.0265
     50 H13        10.3532   -7.9568   -1.8361 H           1 ACE       0.0265
     51 H14         9.9823   -5.5734   -1.5072 H           1 ACE       0.0265
     52 H15        10.6261   -5.6328    0.1290 H           1 ACE       0.0265
     53 H16        11.3879   -8.1280    1.0442 H           1 ACE       0.0265
     54 H17        11.2276   -9.4548   -0.1155 H           1 ACE       0.0265
     55 H18         8.0174   -6.8793   -0.8888 H           1 ACE       0.0277
     56 H19         8.1631   -5.5174    0.2058 H           1 ACE       0.0277
     57 H20         9.3746   -9.5059    1.5092 H           1 ACE       0.0277
     58 H21         8.7881   -9.2475   -0.1281 H           1 ACE       0.0277
     59 H22         7.0000   -8.8075    1.2720 H           1 ACE       0.1839
     60 H23         8.7145   -8.5626    3.3933 H           1 ACE       0.1891
     61 H24         8.6874   -7.2628    5.4199 H           1 ACE       0.0828
     62 H25         9.4278   -9.4251    5.7122 H           1 ACE       0.0551
     63 H26        10.7667   -8.4791    6.3605 H           1 ACE       0.0551
     64 H27        12.7094  -10.6260    4.3116 H           1 ACE       0.1814
     65 H28        12.4481  -10.0827    5.8782 H           1 ACE       0.1814
     66 H29        10.6223   -4.3755    5.5901 H           1 ACE       0.1815
     67 H30         9.0892   -5.0375    5.7532 H           1 ACE       0.1815
@<TRIPOS>BOND
     1     1     2   2
     2     1     3   1
     3     4     1  am
     4     5     4   1
     5     6     5   1
     6     5     8   1
     7     6     7   2
     8    26     6  am
     9     8     9   1
    10     9    10  ar
    11     9    11  ar
    12    10    12  ar
    13    11    13  ar
    14    12    14  ar
    15    13    14  ar
    16    14    15   1
    17    15    16   1
    18    16    17  ar
    19    16    18  ar
    20    16    19  ar
    21    27    20   2
    22    22    21   1
    23    23    21   1
    24    24    22   1
    25    25    23   1
    26    28    24   1
    27    28    25   1
    28    28    26   1
    29    27    28   1
    30    27    29  am
    31    29    30   1
    32    30    31   1
    33    30    33   1
    34    31    32   2
    35    31    37  am
    36    33    34   1
    37    34    35   2
    38    34    36  am
    39     3    38   1
    40     3    39   1
    41     3    40   1
    42     4    41   1
    43     5    42   1
    44     8    43   1
    45     8    44   1
    46    10    45   1
    47    11    46   1
    48    12    47   1
    49    13    48   1
    50    21    49   1
    51    21    50   1
    52    22    51   1
    53    22    52   1
    54    23    53   1
    55    23    54   1
    56    24    55   1
    57    24    56   1
    58    25    57   1
    59    25    58   1
    60    26    59   1
    61    29    60   1
    62    30    61   1
    63    33    62   1
    64    33    63   1
    65    36    64   1
    66    36    65   1
    67    37    66   1
    68    37    67   1
@<TRIPOS>SUBSTRUCTURE
     1  ACE      1

