@<TRIPOS>MOLECULE
3s8o_ligand_019
    67    68
SMALL
GAST_HUCK
****
This file was generated by PARSER (from files_GN.cpp)

@<TRIPOS>ATOM
      1 C          15.2231   -7.9311   -6.7498 C.2         1 ACE       0.1753
      2 O          15.6184   -6.8382   -6.3688 O.2         1 ACE      -0.3972
      3 CH3        16.1870   -8.8604   -7.2908 C.3         1 ACE       0.0258
      4 N          13.9497   -8.2947   -6.6555 N.am        1 ACE      -0.2628
      5 CA         12.8634   -7.5423   -6.0929 C.3         1 ACE       0.1465
      6 C          12.5747   -8.1000   -4.7740 C.2         1 ACE       0.2045
      7 O          12.7263   -7.3828   -3.7937 O.2         1 ACE      -0.3944
      8 CB         11.6435   -7.5894   -7.0706 C.3         1 ACE       0.0400
      9 CG         10.3732   -7.0842   -6.4780 C.ar        1 ACE      -0.0004
     10 CD1        10.1778   -5.6990   -6.2573 C.ar        1 ACE      -0.0239
     11 CD2         9.3468   -7.9794   -6.0853 C.ar        1 ACE      -0.0239
     12 CE1         9.0163   -5.2264   -5.6301 C.ar        1 ACE       0.0115
     13 CE2         8.1816   -7.5039   -5.4580 C.ar        1 ACE       0.0115
     14 CZ          8.0205   -6.1290   -5.1892 C.ar        1 ACE       0.1728
     15 OH          6.8830   -5.6249   -4.6169 O.3         1 ACE      -0.2040
     16 P           6.6547   -6.0521   -3.1372 P.3         1 ACE       0.1348
     17 O1P         7.7807   -5.7971   -2.2680 O.co2       1 ACE      -0.6653
     18 O2P         5.5256   -5.3174   -2.6318 O.co2       1 ACE      -0.6653
     19 O3P         6.2971   -7.4503   -3.0816 O.co2       1 ACE      -0.6653
     20 O          12.8199  -12.3039   -3.7790 O.2         1 ACE      -0.3419
     21 CD          9.6481  -11.0725   -1.5513 C.3         1 ACE      -0.0532
     22 CG          9.8390  -11.8026   -2.9013 C.3         1 ACE      -0.0516
     23 CE         10.9499  -10.3750   -1.0935 C.3         1 ACE      -0.0516
     24 CB         10.4587  -10.8718   -3.9831 C.3         1 ACE      -0.0199
     25 CH         11.5261   -9.4459   -2.1989 C.3         1 ACE      -0.0199
     26 N          12.1726   -9.3640   -4.6826 N.am        1 ACE      -0.2738
     27 C          12.9405  -11.1325   -3.4349 C.2         1 ACE       0.2267
     28 CA         11.8111  -10.1925   -3.5563 C.3         1 ACE       0.1331
     29 N          14.1285  -10.7007   -3.0218 N.am        1 ACE      -0.2608
     30 CA         15.3224  -11.4834   -2.8139 C.3         1 ACE       0.1474
     31 C          15.3254  -12.1160   -1.4967 C.2         1 ACE       0.2017
     32 O          14.2772  -12.4848   -0.9764 O.2         1 ACE      -0.3945
     33 CB         16.5694  -10.5948   -3.1268 C.3         1 ACE       0.0774
     34 CG         16.8623   -9.5682   -2.1394 C.2         1 ACE       0.1781
     35 OD1        16.1970   -8.5450   -2.0939 O.2         1 ACE      -0.3970
     36 ND2        17.8624   -9.6912   -1.2960 N.am        1 ACE      -0.3007
     37 N          16.4257  -12.5174   -0.8964 N.am        1 ACE      -0.2988
     38 H1         15.7201   -9.8088   -7.5626 H           1 ACE       0.0467
     39 H2         16.9612   -9.0616   -6.5488 H           1 ACE       0.0467
     40 H3         16.6506   -8.4348   -8.1826 H           1 ACE       0.0467
     41 H4         13.7375   -9.1921   -6.9612 H           1 ACE       0.1885
     42 H5         13.1474   -6.4865   -5.9830 H           1 ACE       0.0840
     43 H6         11.5126   -8.6180   -7.4223 H           1 ACE       0.0584
     44 H7         11.8756   -6.9876   -7.9540 H           1 ACE       0.0584
     45 H8         10.8911   -5.0272   -6.5556 H           1 ACE       0.0703
     46 H9          9.4465   -8.9865   -6.2460 H           1 ACE       0.0703
     47 H10         8.8935   -4.2229   -5.4784 H           1 ACE       0.0736
     48 H11         7.4528   -8.1691   -5.1834 H           1 ACE       0.0736
     49 H12         9.3428  -11.7957   -0.7898 H           1 ACE       0.0265
     50 H13         8.8509  -10.3316   -1.6479 H           1 ACE       0.0265
     51 H14         8.8681  -12.1676   -3.2412 H           1 ACE       0.0265
     52 H15        10.4779  -12.6757   -2.7492 H           1 ACE       0.0265
     53 H16        11.6919  -11.1331   -0.8316 H           1 ACE       0.0265
     54 H17        10.7434   -9.7851   -0.1966 H           1 ACE       0.0265
     55 H18         9.7307  -10.0869   -4.2028 H           1 ACE       0.0277
     56 H19        10.5907  -11.4508   -4.9035 H           1 ACE       0.0277
     57 H20        12.4346   -8.9794   -1.8145 H           1 ACE       0.0277
     58 H21        10.8009   -8.6457   -2.3736 H           1 ACE       0.0277
     59 H22        12.1386   -9.8265   -5.5359 H           1 ACE       0.1839
     60 H23        14.1912   -9.7599   -2.7964 H           1 ACE       0.1891
     61 H24        15.3470  -12.2993   -3.5467 H           1 ACE       0.0828
     62 H25        16.4240  -10.1017   -4.0911 H           1 ACE       0.0551
     63 H26        17.4370  -11.2505   -3.2496 H           1 ACE       0.0551
     64 H27        18.0452   -8.9867   -0.6543 H           1 ACE       0.1814
     65 H28        18.4194  -10.4867   -1.3127 H           1 ACE       0.1814
     66 H29        16.3749  -13.0063   -0.0586 H           1 ACE       0.1815
     67 H30        17.2957  -12.3248   -1.2824 H           1 ACE       0.1815
@<TRIPOS>BOND
     1     1     2   2
     2     1     3   1
     3     4     1  am
     4     5     4   1
     5     6     5   1
     6     5     8   1
     7     6     7   2
     8    26     6  am
     9     8     9   1
    10     9    10  ar
    11     9    11  ar
    12    10    12  ar
    13    11    13  ar
    14    12    14  ar
    15    13    14  ar
    16    14    15   1
    17    15    16   1
    18    16    17  ar
    19    16    18  ar
    20    16    19  ar
    21    27    20   2
    22    22    21   1
    23    23    21   1
    24    24    22   1
    25    25    23   1
    26    28    24   1
    27    28    25   1
    28    28    26   1
    29    27    28   1
    30    27    29  am
    31    29    30   1
    32    30    31   1
    33    30    33   1
    34    31    32   2
    35    31    37  am
    36    33    34   1
    37    34    35   2
    38    34    36  am
    39     3    38   1
    40     3    39   1
    41     3    40   1
    42     4    41   1
    43     5    42   1
    44     8    43   1
    45     8    44   1
    46    10    45   1
    47    11    46   1
    48    12    47   1
    49    13    48   1
    50    21    49   1
    51    21    50   1
    52    22    51   1
    53    22    52   1
    54    23    53   1
    55    23    54   1
    56    24    55   1
    57    24    56   1
    58    25    57   1
    59    25    58   1
    60    26    59   1
    61    29    60   1
    62    30    61   1
    63    33    62   1
    64    33    63   1
    65    36    64   1
    66    36    65   1
    67    37    66   1
    68    37    67   1
@<TRIPOS>SUBSTRUCTURE
     1  ACE      1

