@<TRIPOS>MOLECULE
3s8o_ligand_090
    67    68
SMALL
GAST_HUCK
****
This file was generated by PARSER (from files_GN.cpp)

@<TRIPOS>ATOM
      1 C           8.7548   -9.2793   -0.9071 C.2         1 ACE       0.1753
      2 O           8.3214   -9.6283   -2.0020 O.2         1 ACE      -0.3972
      3 CH3        10.0227   -9.8059   -0.4793 C.3         1 ACE       0.0258
      4 N           8.0747   -8.4574   -0.1208 N.am        1 ACE      -0.2628
      5 CA          6.8059   -7.8456   -0.4108 C.3         1 ACE       0.1465
      6 C           6.4813   -6.9184    0.6688 C.2         1 ACE       0.2045
      7 O           6.3213   -5.7316    0.4098 O.2         1 ACE      -0.3944
      8 CB          5.6683   -8.9028   -0.6293 C.3         1 ACE       0.0400
      9 CG          4.6130   -8.6523   -1.6584 C.ar        1 ACE      -0.0004
     10 CD1         4.4850   -7.4501   -2.3955 C.ar        1 ACE      -0.0239
     11 CD2         3.7205   -9.7081   -1.9687 C.ar        1 ACE      -0.0239
     12 CE1         3.5439   -7.3291   -3.4354 C.ar        1 ACE       0.0115
     13 CE2         2.7852   -9.5973   -3.0126 C.ar        1 ACE       0.0115
     14 CZ          2.6874   -8.4025   -3.7524 C.ar        1 ACE       0.1728
     15 OH          1.8708   -8.3308   -4.8447 O.3         1 ACE      -0.2040
     16 P           0.4332   -7.8047   -4.5540 P.3         1 ACE       0.1348
     17 O1P        -0.3088   -8.6578   -3.6607 O.co2       1 ACE      -0.6653
     18 O2P         0.4355   -6.4475   -4.0667 O.co2       1 ACE      -0.6653
     19 O3P        -0.2668   -7.8015   -5.8125 O.co2       1 ACE      -0.6653
     20 O           4.6849   -4.8857    2.8979 O.2         1 ACE      -0.3419
     21 CD          8.9972   -7.0174    4.4757 C.3         1 ACE      -0.0532
     22 CG          8.8045   -6.0194    3.3159 C.3         1 ACE      -0.0516
     23 CE          7.9460   -8.1495    4.4440 C.3         1 ACE      -0.0516
     24 CB          7.3453   -5.4804    3.2768 C.3         1 ACE      -0.0199
     25 CH          6.4870   -7.6094    4.3443 C.3         1 ACE      -0.0199
     26 N           6.4094   -7.3597    1.9243 N.am        1 ACE      -0.2738
     27 C           4.8755   -6.0656    3.1794 C.2         1 ACE       0.2267
     28 CA          6.2455   -6.6060    3.1537 C.3         1 ACE       0.1331
     29 N           3.8001   -6.8469    3.3627 N.am        1 ACE      -0.2608
     30 CA          2.4165   -6.4824    3.1417 C.3         1 ACE       0.1474
     31 C           1.9561   -5.3127    3.8795 C.2         1 ACE       0.2017
     32 O           2.6292   -4.7850    4.7498 O.2         1 ACE      -0.3945
     33 CB          1.4742   -7.7093    3.3795 C.3         1 ACE       0.0774
     34 CG          0.7990   -7.7496    4.6687 C.2         1 ACE       0.1781
     35 OD1        -0.3352   -7.2881    4.7861 O.2         1 ACE      -0.3970
     36 ND2         1.3762   -8.2442    5.7420 N.am        1 ACE      -0.3007
     37 N           0.7702   -4.7950    3.6298 N.am        1 ACE      -0.2988
     38 H1         10.3292   -9.3796    0.4790 H           1 ACE       0.0467
     39 H2         10.7979   -9.5785   -1.2182 H           1 ACE       0.0467
     40 H3          9.9496  -10.8910   -0.3663 H           1 ACE       0.0467
     41 H4          8.4927   -8.2393    0.7257 H           1 ACE       0.1885
     42 H5          6.9511   -7.2793   -1.3357 H           1 ACE       0.0840
     43 H6          5.1635   -9.1028    0.3251 H           1 ACE       0.0584
     44 H7          6.1570   -9.8379   -0.9234 H           1 ACE       0.0584
     45 H8          5.0936   -6.6512   -2.2054 H           1 ACE       0.0703
     46 H9          3.7718  -10.5970   -1.4597 H           1 ACE       0.0703
     47 H10         3.5002   -6.4609   -3.9772 H           1 ACE       0.0736
     48 H11         2.1894  -10.3949   -3.2517 H           1 ACE       0.0736
     49 H12         8.9198   -6.4815    5.4251 H           1 ACE       0.0265
     50 H13        10.0016   -7.4449    4.4162 H           1 ACE       0.0265
     51 H14         9.0406   -6.5040    2.3647 H           1 ACE       0.0265
     52 H15         9.4929   -5.1810    3.4425 H           1 ACE       0.0265
     53 H16         8.0399   -8.7513    5.3523 H           1 ACE       0.0265
     54 H17         8.1533   -8.8083    3.5929 H           1 ACE       0.0265
     55 H18         7.2760   -4.7750    2.4474 H           1 ACE       0.0277
     56 H19         7.1730   -4.9097    4.1961 H           1 ACE       0.0277
     57 H20         6.2392   -7.1144    5.2896 H           1 ACE       0.0277
     58 H21         5.8257   -8.4752    4.2515 H           1 ACE       0.0277
     59 H22         6.5306   -8.3206    2.0299 H           1 ACE       0.1839
     60 H23         3.9648   -7.7718    3.5976 H           1 ACE       0.1891
     61 H24         2.3506   -6.2432    2.0756 H           1 ACE       0.0828
     62 H25         2.0386   -8.6452    3.2567 H           1 ACE       0.0551
     63 H26         0.7127   -7.7168    2.5829 H           1 ACE       0.0551
     64 H27         0.8886   -8.2716    6.5812 H           1 ACE       0.1814
     65 H28         2.2745   -8.5971    5.6898 H           1 ACE       0.1814
     66 H29         0.4566   -4.0247    4.1341 H           1 ACE       0.1815
     67 H30         0.1959   -5.1900    2.9561 H           1 ACE       0.1815
@<TRIPOS>BOND
     1     1     2   2
     2     1     3   1
     3     4     1  am
     4     5     4   1
     5     6     5   1
     6     5     8   1
     7     6     7   2
     8    26     6  am
     9     8     9   1
    10     9    10  ar
    11     9    11  ar
    12    10    12  ar
    13    11    13  ar
    14    12    14  ar
    15    13    14  ar
    16    14    15   1
    17    15    16   1
    18    16    17  ar
    19    16    18  ar
    20    16    19  ar
    21    27    20   2
    22    22    21   1
    23    23    21   1
    24    24    22   1
    25    25    23   1
    26    28    24   1
    27    28    25   1
    28    28    26   1
    29    27    28   1
    30    27    29  am
    31    29    30   1
    32    30    31   1
    33    30    33   1
    34    31    32   2
    35    31    37  am
    36    33    34   1
    37    34    35   2
    38    34    36  am
    39     3    38   1
    40     3    39   1
    41     3    40   1
    42     4    41   1
    43     5    42   1
    44     8    43   1
    45     8    44   1
    46    10    45   1
    47    11    46   1
    48    12    47   1
    49    13    48   1
    50    21    49   1
    51    21    50   1
    52    22    51   1
    53    22    52   1
    54    23    53   1
    55    23    54   1
    56    24    55   1
    57    24    56   1
    58    25    57   1
    59    25    58   1
    60    26    59   1
    61    29    60   1
    62    30    61   1
    63    33    62   1
    64    33    63   1
    65    36    64   1
    66    36    65   1
    67    37    66   1
    68    37    67   1
@<TRIPOS>SUBSTRUCTURE
     1  ACE      1

