@<TRIPOS>MOLECULE
3s8o_ligand_040
    67    68
SMALL
GAST_HUCK
****
This file was generated by PARSER (from files_GN.cpp)

@<TRIPOS>ATOM
      1 C          10.7022   -6.7106   -2.3339 C.2         1 ACE       0.1753
      2 O          11.3068   -6.2155   -3.2745 O.2         1 ACE      -0.3972
      3 CH3        11.2302   -6.5235   -1.0012 C.3         1 ACE       0.0258
      4 N           9.6106   -7.4485   -2.5117 N.am        1 ACE      -0.2628
      5 CA          8.9957   -7.8305   -3.7652 C.3         1 ACE       0.1465
      6 C           9.9372   -8.6301   -4.5594 C.2         1 ACE       0.2045
      7 O          10.2446   -8.2759   -5.6840 O.2         1 ACE      -0.3944
      8 CB          8.3142   -6.6041   -4.4704 C.3         1 ACE       0.0400
      9 CG          7.0610   -6.9028   -5.2399 C.ar        1 ACE      -0.0004
     10 CD1         7.0752   -7.7856   -6.3456 C.ar        1 ACE      -0.0239
     11 CD2         5.8415   -6.2610   -4.9160 C.ar        1 ACE      -0.0239
     12 CE1         5.9049   -8.0286   -7.0945 C.ar        1 ACE       0.0115
     13 CE2         4.6685   -6.4981   -5.6727 C.ar        1 ACE       0.0115
     14 CZ          4.6961   -7.3988   -6.7533 C.ar        1 ACE       0.1728
     15 OH          3.5815   -7.5725   -7.5377 O.3         1 ACE      -0.2040
     16 P           2.7157   -8.8028   -7.1374 P.3         1 ACE       0.1348
     17 O1P         1.6924   -8.9542   -8.1400 O.co2       1 ACE      -0.6653
     18 O2P         3.4805  -10.0213   -7.1168 O.co2       1 ACE      -0.6653
     19 O3P         2.0520   -8.6117   -5.8746 O.co2       1 ACE      -0.6653
     20 O           9.8055  -12.2410   -5.0665 O.2         1 ACE      -0.3419
     21 CD         14.0264  -10.0590   -3.0718 C.3         1 ACE      -0.0532
     22 CG         12.8490  -10.8200   -2.4136 C.3         1 ACE      -0.0516
     23 CE         13.5338   -9.1442   -4.2229 C.3         1 ACE      -0.0516
     24 CB         11.9871  -11.5715   -3.4617 C.3         1 ACE      -0.0199
     25 CH         12.6867   -9.9454   -5.2449 C.3         1 ACE      -0.0199
     26 N          10.4959   -9.7100   -4.0125 N.am        1 ACE      -0.2738
     27 C          10.6435  -11.4828   -5.5416 C.2         1 ACE       0.2267
     28 CA         11.4259  -10.6472   -4.6051 C.3         1 ACE       0.1331
     29 N          10.7636  -11.3980   -6.8643 N.am        1 ACE      -0.2608
     30 CA         10.0291  -12.1615   -7.8502 C.3         1 ACE       0.1474
     31 C          10.9906  -13.0602   -8.4921 C.2         1 ACE       0.2017
     32 O          11.6873  -13.7752   -7.7860 O.2         1 ACE      -0.3945
     33 CB          9.2952  -11.1134   -8.7639 C.3         1 ACE       0.0774
     34 CG          8.2657  -11.6022   -9.6739 C.2         1 ACE       0.1781
     35 OD1         7.5245  -10.8011  -10.2034 O.2         1 ACE      -0.3970
     36 ND2         8.0894  -12.8749   -9.9815 N.am        1 ACE      -0.3007
     37 N          11.1615  -13.1648   -9.7900 N.am        1 ACE      -0.2988
     38 H1         10.6231   -7.0329   -0.2518 H           1 ACE       0.0467
     39 H2         11.2572   -5.4599   -0.7620 H           1 ACE       0.0467
     40 H3         12.2444   -6.9238   -0.9492 H           1 ACE       0.0467
     41 H4          9.1932   -7.7958   -1.7110 H           1 ACE       0.1885
     42 H5          8.1910   -8.5163   -3.4740 H           1 ACE       0.0840
     43 H6          9.0228   -6.1184   -5.1426 H           1 ACE       0.0584
     44 H7          8.0839   -5.8588   -3.7020 H           1 ACE       0.0584
     45 H8          7.9250   -8.2580   -6.6309 H           1 ACE       0.0703
     46 H9          5.7868   -5.5996   -4.1391 H           1 ACE       0.0703
     47 H10         5.9459   -8.6695   -7.8926 H           1 ACE       0.0736
     48 H11         3.8074   -6.0081   -5.4322 H           1 ACE       0.0736
     49 H12        14.7497  -10.7790   -3.4684 H           1 ACE       0.0265
     50 H13        14.5360   -9.4516   -2.3214 H           1 ACE       0.0265
     51 H14        12.2210  -10.1116   -1.8685 H           1 ACE       0.0265
     52 H15        13.2476  -11.5408   -1.6924 H           1 ACE       0.0265
     53 H16        14.3978   -8.7082   -4.7306 H           1 ACE       0.0265
     54 H17        12.9430   -8.3261   -3.8087 H           1 ACE       0.0265
     55 H18        11.1672  -12.0644   -2.9279 H           1 ACE       0.0277
     56 H19        12.6058  -12.3601   -3.9075 H           1 ACE       0.0277
     57 H20        13.3302  -10.7092   -5.6913 H           1 ACE       0.0277
     58 H21        12.4054   -9.2716   -6.0523 H           1 ACE       0.0277
     59 H22        10.2318   -9.8993   -3.0986 H           1 ACE       0.1839
     60 H23        11.3954  -10.7570   -7.2133 H           1 ACE       0.1891
     61 H24         9.2688  -12.7838   -7.3836 H           1 ACE       0.0828
     62 H25        10.0379  -10.5801   -9.3511 H           1 ACE       0.0551
     63 H26         8.8153  -10.3891   -8.1041 H           1 ACE       0.0551
     64 H27         7.3952  -13.1299  -10.6101 H           1 ACE       0.1814
     65 H28         8.6652  -13.5547   -9.6033 H           1 ACE       0.1814
     66 H29        11.8027  -13.7991  -10.1457 H           1 ACE       0.1815
     67 H30        10.6432  -12.6179  -10.4067 H           1 ACE       0.1815
@<TRIPOS>BOND
     1     1     2   2
     2     1     3   1
     3     4     1  am
     4     5     4   1
     5     6     5   1
     6     5     8   1
     7     6     7   2
     8    26     6  am
     9     8     9   1
    10     9    10  ar
    11     9    11  ar
    12    10    12  ar
    13    11    13  ar
    14    12    14  ar
    15    13    14  ar
    16    14    15   1
    17    15    16   1
    18    16    17  ar
    19    16    18  ar
    20    16    19  ar
    21    27    20   2
    22    22    21   1
    23    23    21   1
    24    24    22   1
    25    25    23   1
    26    28    24   1
    27    28    25   1
    28    28    26   1
    29    27    28   1
    30    27    29  am
    31    29    30   1
    32    30    31   1
    33    30    33   1
    34    31    32   2
    35    31    37  am
    36    33    34   1
    37    34    35   2
    38    34    36  am
    39     3    38   1
    40     3    39   1
    41     3    40   1
    42     4    41   1
    43     5    42   1
    44     8    43   1
    45     8    44   1
    46    10    45   1
    47    11    46   1
    48    12    47   1
    49    13    48   1
    50    21    49   1
    51    21    50   1
    52    22    51   1
    53    22    52   1
    54    23    53   1
    55    23    54   1
    56    24    55   1
    57    24    56   1
    58    25    57   1
    59    25    58   1
    60    26    59   1
    61    29    60   1
    62    30    61   1
    63    33    62   1
    64    33    63   1
    65    36    64   1
    66    36    65   1
    67    37    66   1
    68    37    67   1
@<TRIPOS>SUBSTRUCTURE
     1  ACE      1

