@<TRIPOS>MOLECULE
3s8o_ligand_017
    67    68
SMALL
GAST_HUCK
****
This file was generated by PARSER (from files_GN.cpp)

@<TRIPOS>ATOM
      1 C           7.9780   -7.0564    1.4265 C.2         1 ACE       0.1753
      2 O           8.5405   -5.9798    1.2696 O.2         1 ACE      -0.3972
      3 CH3         6.5863   -7.0515    1.8102 C.3         1 ACE       0.0258
      4 N           8.6110   -8.2125    1.2639 N.am        1 ACE      -0.2628
      5 CA          9.9781   -8.4141    0.8657 C.3         1 ACE       0.1465
      6 C          10.8922   -7.8489    1.8693 C.2         1 ACE       0.2045
      7 O          11.5408   -6.8459    1.6127 O.2         1 ACE      -0.3944
      8 CB         10.2121   -8.0102   -0.6401 C.3         1 ACE       0.0400
      9 CG         10.5116   -9.1601   -1.5465 C.ar        1 ACE      -0.0004
     10 CD1         9.5678  -10.1963   -1.7476 C.ar        1 ACE      -0.0239
     11 CD2        11.7413   -9.2334   -2.2382 C.ar        1 ACE      -0.0239
     12 CE1         9.8383  -11.2591   -2.6308 C.ar        1 ACE       0.0115
     13 CE2        12.0233  -10.3089   -3.0966 C.ar        1 ACE       0.0115
     14 CZ         11.0592  -11.3101   -3.3345 C.ar        1 ACE       0.1728
     15 OH         11.3408  -12.3599   -4.1698 O.3         1 ACE      -0.2040
     16 P          10.9745  -12.0950   -5.6639 P.3         1 ACE       0.1348
     17 O1P         9.5621  -12.1803   -5.9031 O.co2       1 ACE      -0.6653
     18 O2P        11.4552  -10.8243   -6.1391 O.co2       1 ACE      -0.6653
     19 O3P        11.6399  -13.1043   -6.4511 O.co2       1 ACE      -0.6653
     20 O          13.6130   -6.8504    4.2066 O.2         1 ACE      -0.3419
     21 CD         10.8517  -10.5048    6.0590 C.3         1 ACE      -0.0532
     22 CG         11.9135  -10.6567    4.9462 C.3         1 ACE      -0.0516
     23 CE          9.8455   -9.3830    5.7105 C.3         1 ACE      -0.0516
     24 CB         12.6108   -9.3108    4.6119 C.3         1 ACE      -0.0199
     25 CH         10.5670   -8.0336    5.4403 C.3         1 ACE      -0.0199
     26 N          10.9408   -8.4274    3.0712 N.am        1 ACE      -0.2738
     27 C          12.3924   -6.8291    4.2652 C.2         1 ACE       0.2267
     28 CA         11.6447   -8.1038    4.2968 C.3         1 ACE       0.1331
     29 N          11.7568   -5.6549    4.2171 N.am        1 ACE      -0.2608
     30 CA         12.2960   -4.3157    4.1969 C.3         1 ACE       0.1474
     31 C          13.2193   -4.1062    3.0841 C.2         1 ACE       0.2017
     32 O          14.3871   -4.4653    3.1584 O.2         1 ACE      -0.3945
     33 CB         12.8230   -3.7935    5.5862 C.3         1 ACE       0.0774
     34 CG         13.4459   -4.7640    6.4704 C.2         1 ACE       0.1781
     35 OD1        12.8524   -5.1823    7.4511 O.2         1 ACE      -0.3970
     36 ND2        14.6613   -5.2181    6.2622 N.am        1 ACE      -0.3007
     37 N          12.8840   -3.4378    2.0006 N.am        1 ACE      -0.2988
     38 H1          6.1803   -8.0636    1.8709 H           1 ACE       0.0467
     39 H2          6.0030   -6.4970    1.0727 H           1 ACE       0.0467
     40 H3          6.4711   -6.5756    2.7871 H           1 ACE       0.0467
     41 H4          8.0910   -9.0150    1.4235 H           1 ACE       0.1885
     42 H5         10.1260   -9.4962    0.9289 H           1 ACE       0.0840
     43 H6         11.0177   -7.2788   -0.7082 H           1 ACE       0.0584
     44 H7          9.3340   -7.4998   -1.0365 H           1 ACE       0.0584
     45 H8          8.6759  -10.1878   -1.2435 H           1 ACE       0.0703
     46 H9         12.4469   -8.5014   -2.1206 H           1 ACE       0.0703
     47 H10         9.1451  -11.9964   -2.7647 H           1 ACE       0.0736
     48 H11        12.9335  -10.3548   -3.5605 H           1 ACE       0.0736
     49 H12        11.3411  -10.2662    7.0083 H           1 ACE       0.0265
     50 H13        10.3200  -11.4501    6.1824 H           1 ACE       0.0265
     51 H14        11.4460  -11.0616    4.0447 H           1 ACE       0.0265
     52 H15        12.6677  -11.3730    5.2845 H           1 ACE       0.0265
     53 H16         9.1441   -9.2611    6.5378 H           1 ACE       0.0265
     54 H17         9.2592   -9.6713    4.8332 H           1 ACE       0.0265
     55 H18        13.2853   -9.4736    3.7601 H           1 ACE       0.0277
     56 H19        13.2379   -9.0506    5.4755 H           1 ACE       0.0277
     57 H20        11.0375   -7.7091    6.3746 H           1 ACE       0.0277
     58 H21         9.7958   -7.2986    5.1851 H           1 ACE       0.0277
     59 H22        10.3975   -9.2293    3.1368 H           1 ACE       0.1839
     60 H23        10.7893   -5.7007    4.2134 H           1 ACE       0.1891
     61 H24        11.4093   -3.6938    3.9846 H           1 ACE       0.0828
     62 H25        11.9801   -3.3510    6.1212 H           1 ACE       0.0551
     63 H26        13.5237   -2.9702    5.4369 H           1 ACE       0.0551
     64 H27        15.0396   -5.8788    6.8649 H           1 ACE       0.1814
     65 H28        15.1692   -4.9288    5.4873 H           1 ACE       0.1814
     66 H29        13.5395   -3.3019    1.2983 H           1 ACE       0.1815
     67 H30        11.9820   -3.0990    1.8956 H           1 ACE       0.1815
@<TRIPOS>BOND
     1     1     2   2
     2     1     3   1
     3     4     1  am
     4     5     4   1
     5     6     5   1
     6     5     8   1
     7     6     7   2
     8    26     6  am
     9     8     9   1
    10     9    10  ar
    11     9    11  ar
    12    10    12  ar
    13    11    13  ar
    14    12    14  ar
    15    13    14  ar
    16    14    15   1
    17    15    16   1
    18    16    17  ar
    19    16    18  ar
    20    16    19  ar
    21    27    20   2
    22    22    21   1
    23    23    21   1
    24    24    22   1
    25    25    23   1
    26    28    24   1
    27    28    25   1
    28    28    26   1
    29    27    28   1
    30    27    29  am
    31    29    30   1
    32    30    31   1
    33    30    33   1
    34    31    32   2
    35    31    37  am
    36    33    34   1
    37    34    35   2
    38    34    36  am
    39     3    38   1
    40     3    39   1
    41     3    40   1
    42     4    41   1
    43     5    42   1
    44     8    43   1
    45     8    44   1
    46    10    45   1
    47    11    46   1
    48    12    47   1
    49    13    48   1
    50    21    49   1
    51    21    50   1
    52    22    51   1
    53    22    52   1
    54    23    53   1
    55    23    54   1
    56    24    55   1
    57    24    56   1
    58    25    57   1
    59    25    58   1
    60    26    59   1
    61    29    60   1
    62    30    61   1
    63    33    62   1
    64    33    63   1
    65    36    64   1
    66    36    65   1
    67    37    66   1
    68    37    67   1
@<TRIPOS>SUBSTRUCTURE
     1  ACE      1

