@<TRIPOS>MOLECULE
3s8o_ligand_066
    67    68
SMALL
GAST_HUCK
****
This file was generated by PARSER (from files_GN.cpp)

@<TRIPOS>ATOM
      1 C           8.0146   -9.2179   -1.4711 C.2         1 ACE       0.1753
      2 O           7.1204   -9.1759   -2.3060 O.2         1 ACE      -0.3972
      3 CH3         9.2020   -9.9832   -1.7790 C.3         1 ACE       0.0258
      4 N           7.9284   -8.5739   -0.3138 N.am        1 ACE      -0.2628
      5 CA          6.8372   -7.7708    0.1821 C.3         1 ACE       0.1465
      6 C           7.2709   -7.1181    1.4195 C.2         1 ACE       0.2045
      7 O           7.0858   -5.9143    1.5376 O.2         1 ACE      -0.3944
      8 CB          5.5364   -8.6203    0.3787 C.3         1 ACE       0.0400
      9 CG          4.3237   -7.9529    0.9397 C.ar        1 ACE      -0.0004
     10 CD1         3.3873   -8.7202    1.6762 C.ar        1 ACE      -0.0239
     11 CD2         3.9919   -6.6131    0.6292 C.ar        1 ACE      -0.0239
     12 CE1         2.1781   -8.1508    2.1227 C.ar        1 ACE       0.0115
     13 CE2         2.7917   -6.0389    1.0913 C.ar        1 ACE       0.0115
     14 CZ          1.8952   -6.7944    1.8743 C.ar        1 ACE       0.1728
     15 OH          0.7020   -6.2549    2.2816 O.3         1 ACE      -0.2040
     16 P           0.8085   -5.3420    3.5335 P.3         1 ACE       0.1348
     17 O1P         1.0021   -6.0390    4.7883 O.co2       1 ACE      -0.6653
     18 O2P         1.8160   -4.3206    3.3922 O.co2       1 ACE      -0.6653
     19 O3P        -0.4492   -4.6490    3.6514 O.co2       1 ACE      -0.6653
     20 O           7.9099   -8.6528    5.4286 O.2         1 ACE      -0.3419
     21 CD         11.3971   -6.5424    2.5702 C.3         1 ACE      -0.0532
     22 CG         10.1849   -5.5799    2.5515 C.3         1 ACE      -0.0516
     23 CE         10.9485   -8.0225    2.4830 C.3         1 ACE      -0.0516
     24 CB          9.1455   -5.9529    3.6428 C.3         1 ACE      -0.0199
     25 CH          9.8990   -8.3633    3.5792 C.3         1 ACE      -0.0199
     26 N           7.8889   -7.8320    2.3561 N.am        1 ACE      -0.2738
     27 C           7.7002   -7.7144    4.6688 C.2         1 ACE       0.2267
     28 CA          8.6177   -7.4395    3.5493 C.3         1 ACE       0.1331
     29 N           6.6071   -6.9736    4.8182 N.am        1 ACE      -0.2608
     30 CA          5.5367   -7.1517    5.7606 C.3         1 ACE       0.1474
     31 C           4.3367   -7.4626    5.0062 C.2         1 ACE       0.2017
     32 O           3.8216   -6.6234    4.2856 O.2         1 ACE      -0.3945
     33 CB          5.3187   -5.8699    6.6211 C.3         1 ACE       0.0774
     34 CG          6.1034   -5.8488    7.8375 C.2         1 ACE       0.1781
     35 OD1         6.0917   -6.8220    8.5775 O.2         1 ACE      -0.3970
     36 ND2         6.7579   -4.7779    8.2395 N.am        1 ACE      -0.3007
     37 N           3.7509   -8.6362    5.1070 N.am        1 ACE      -0.2988
     38 H1          9.9304   -9.9527   -0.9636 H           1 ACE       0.0467
     39 H2          9.6740   -9.5840   -2.6782 H           1 ACE       0.0467
     40 H3          8.9277  -11.0238   -1.9563 H           1 ACE       0.0467
     41 H4          8.7054   -8.6425    0.2634 H           1 ACE       0.1885
     42 H5          6.6428   -7.0041   -0.5771 H           1 ACE       0.0840
     43 H6          5.7996   -9.4831    0.9984 H           1 ACE       0.0584
     44 H7          5.2303   -9.0099   -0.5928 H           1 ACE       0.0584
     45 H8          3.5619   -9.7094    1.8749 H           1 ACE       0.0703
     46 H9          4.6075   -6.0423    0.0513 H           1 ACE       0.0703
     47 H10         1.5107   -8.7258    2.6442 H           1 ACE       0.0736
     48 H11         2.5699   -5.0722    0.8522 H           1 ACE       0.0736
     49 H12        11.9674   -6.3929    3.4925 H           1 ACE       0.0265
     50 H13        12.0531   -6.3136    1.7267 H           1 ACE       0.0265
     51 H14         9.7264   -5.6090    1.5603 H           1 ACE       0.0265
     52 H15        10.5422   -4.5610    2.7206 H           1 ACE       0.0265
     53 H16        11.8249   -8.6677    2.6066 H           1 ACE       0.0265
     54 H17        10.5232   -8.2221    1.4947 H           1 ACE       0.0265
     55 H18         8.3258   -5.2353    3.5942 H           1 ACE       0.0277
     56 H19         9.6222   -5.8091    4.6184 H           1 ACE       0.0277
     57 H20        10.3955   -8.2715    4.5523 H           1 ACE       0.0277
     58 H21         9.6110   -9.4162    3.4665 H           1 ACE       0.0277
     59 H22         7.8721   -8.7923    2.1943 H           1 ACE       0.1839
     60 H23         6.4843   -6.2591    4.1736 H           1 ACE       0.1891
     61 H24         5.7536   -7.9825    6.4449 H           1 ACE       0.0828
     62 H25         4.2743   -5.8155    6.9375 H           1 ACE       0.0551
     63 H26         5.5216   -4.9758    6.0208 H           1 ACE       0.0551
     64 H27         7.2267   -4.7840    9.0958 H           1 ACE       0.1814
     65 H28         6.7599   -3.9661    7.6994 H           1 ACE       0.1814
     66 H29         2.9234   -8.8017    4.6320 H           1 ACE       0.1815
     67 H30         4.1347   -9.3313    5.6645 H           1 ACE       0.1815
@<TRIPOS>BOND
     1     1     2   2
     2     1     3   1
     3     4     1  am
     4     5     4   1
     5     6     5   1
     6     5     8   1
     7     6     7   2
     8    26     6  am
     9     8     9   1
    10     9    10  ar
    11     9    11  ar
    12    10    12  ar
    13    11    13  ar
    14    12    14  ar
    15    13    14  ar
    16    14    15   1
    17    15    16   1
    18    16    17  ar
    19    16    18  ar
    20    16    19  ar
    21    27    20   2
    22    22    21   1
    23    23    21   1
    24    24    22   1
    25    25    23   1
    26    28    24   1
    27    28    25   1
    28    28    26   1
    29    27    28   1
    30    27    29  am
    31    29    30   1
    32    30    31   1
    33    30    33   1
    34    31    32   2
    35    31    37  am
    36    33    34   1
    37    34    35   2
    38    34    36  am
    39     3    38   1
    40     3    39   1
    41     3    40   1
    42     4    41   1
    43     5    42   1
    44     8    43   1
    45     8    44   1
    46    10    45   1
    47    11    46   1
    48    12    47   1
    49    13    48   1
    50    21    49   1
    51    21    50   1
    52    22    51   1
    53    22    52   1
    54    23    53   1
    55    23    54   1
    56    24    55   1
    57    24    56   1
    58    25    57   1
    59    25    58   1
    60    26    59   1
    61    29    60   1
    62    30    61   1
    63    33    62   1
    64    33    63   1
    65    36    64   1
    66    36    65   1
    67    37    66   1
    68    37    67   1
@<TRIPOS>SUBSTRUCTURE
     1  ACE      1

