@<TRIPOS>MOLECULE
3s8o_ligand_036
    67    68
SMALL
GAST_HUCK
****
This file was generated by PARSER (from files_GN.cpp)

@<TRIPOS>ATOM
      1 C           8.2051   -7.2970    0.1842 C.2         1 ACE       0.1753
      2 O           8.1563   -6.1153   -0.1422 O.2         1 ACE      -0.3972
      3 CH3         9.4988   -7.8565    0.4958 C.3         1 ACE       0.0258
      4 N           7.1157   -8.0575    0.2062 N.am        1 ACE      -0.2628
      5 CA          5.7856   -7.6402   -0.1761 C.3         1 ACE       0.1465
      6 C           5.1885   -6.8213    0.8838 C.2         1 ACE       0.2045
      7 O           4.7618   -5.7064    0.6089 O.2         1 ACE      -0.3944
      8 CB          4.8800   -8.8549   -0.5675 C.3         1 ACE       0.0400
      9 CG          3.8924   -8.7339   -1.6888 C.ar        1 ACE      -0.0004
     10 CD1         3.2158   -9.9157   -2.0828 C.ar        1 ACE      -0.0239
     11 CD2         3.6368   -7.5548   -2.4335 C.ar        1 ACE      -0.0239
     12 CE1         2.3835   -9.9412   -3.2157 C.ar        1 ACE       0.0115
     13 CE2         2.8292   -7.5851   -3.5888 C.ar        1 ACE       0.0115
     14 CZ          2.1872   -8.7732   -3.9835 C.ar        1 ACE       0.1728
     15 OH          1.4900   -8.8136   -5.1598 O.3         1 ACE      -0.2040
     16 P          -0.0253   -8.4858   -5.0137 P.3         1 ACE       0.1348
     17 O1P        -0.7244   -9.5318   -4.3117 O.co2       1 ACE      -0.6653
     18 O2P        -0.2847   -7.2107   -4.3929 O.co2       1 ACE      -0.6653
     19 O3P        -0.5773   -8.4277   -6.3460 O.co2       1 ACE      -0.6653
     20 O           2.9498   -5.1926    3.4801 O.2         1 ACE      -0.3419
     21 CD          7.5009   -6.6634    4.8521 C.3         1 ACE      -0.0532
     22 CG          7.2153   -5.6539    3.7135 C.3         1 ACE      -0.0516
     23 CE          6.6480   -7.9468    4.7054 C.3         1 ACE      -0.0516
     24 CB          5.6984   -5.3441    3.6083 C.3         1 ACE      -0.0199
     25 CH          5.1337   -7.6242    4.5436 C.3         1 ACE      -0.0199
     26 N           5.1757   -7.2862    2.1327 N.am        1 ACE      -0.2738
     27 C           3.3632   -6.3386    3.3533 C.2         1 ACE       0.2267
     28 CA          4.8111   -6.6264    3.3683 C.3         1 ACE       0.1331
     29 N           2.4921   -7.3379    3.2255 N.am        1 ACE      -0.2608
     30 CA          1.0535   -7.2744    3.2368 C.3         1 ACE       0.1474
     31 C           0.5168   -7.5543    4.5671 C.2         1 ACE       0.2017
     32 O          -0.6283   -7.2196    4.8359 O.2         1 ACE      -0.3945
     33 CB          0.5433   -8.2489    2.1309 C.3         1 ACE       0.0774
     34 CG         -0.8987   -8.3840    2.0100 C.2         1 ACE       0.1781
     35 OD1        -1.5264   -7.6999    1.2117 O.2         1 ACE      -0.3970
     36 ND2        -1.5585   -9.2987    2.6866 N.am        1 ACE      -0.3007
     37 N           1.1992   -8.1332    5.5322 N.am        1 ACE      -0.2988
     38 H1          9.4337   -8.9175    0.7497 H           1 ACE       0.0467
     39 H2          9.9432   -7.3247    1.3392 H           1 ACE       0.0467
     40 H3         10.1506   -7.7503   -0.3723 H           1 ACE       0.0467
     41 H4          7.2336   -8.9847    0.4574 H           1 ACE       0.1885
     42 H5          5.9186   -7.0445   -1.0920 H           1 ACE       0.0840
     43 H6          4.3322   -9.1997    0.3163 H           1 ACE       0.0584
     44 H7          5.5525   -9.6685   -0.8620 H           1 ACE       0.0584
     45 H8          3.3521  -10.7861   -1.5622 H           1 ACE       0.0703
     46 H9          4.0567   -6.6628   -2.1628 H           1 ACE       0.0703
     47 H10         1.9317  -10.8179   -3.4961 H           1 ACE       0.0736
     48 H11         2.7138   -6.7356   -4.1454 H           1 ACE       0.0736
     49 H12         7.2824   -6.1915    5.8158 H           1 ACE       0.0265
     50 H13         8.5619   -6.9290    4.8441 H           1 ACE       0.0265
     51 H14         7.5735   -6.0621    2.7671 H           1 ACE       0.0265
     52 H15         7.7648   -4.7294    3.9065 H           1 ACE       0.0265
     53 H16         6.7904   -8.5721    5.5884 H           1 ACE       0.0265
     54 H17         6.9964   -8.5140    3.8394 H           1 ACE       0.0265
     55 H18         5.5457   -4.6151    2.8107 H           1 ACE       0.0277
     56 H19         5.3904   -4.8613    4.5430 H           1 ACE       0.0277
     57 H20         4.7696   -7.2058    5.4898 H           1 ACE       0.0277
     58 H21         4.6110   -8.5738    4.3917 H           1 ACE       0.0277
     59 H22         5.5056   -8.1929    2.2293 H           1 ACE       0.1839
     60 H23         2.8721   -8.2307    3.1666 H           1 ACE       0.1891
     61 H24         0.7336   -6.2632    2.9551 H           1 ACE       0.0828
     62 H25         0.9706   -9.2407    2.2976 H           1 ACE       0.0551
     63 H26         0.9394   -7.9034    1.1690 H           1 ACE       0.0551
     64 H27        -2.5089   -9.4209    2.5331 H           1 ACE       0.1814
     65 H28        -1.0923   -9.8680    3.3223 H           1 ACE       0.1814
     66 H29         0.7801   -8.2978    6.3946 H           1 ACE       0.1815
     67 H30         2.1149   -8.4193    5.3865 H           1 ACE       0.1815
@<TRIPOS>BOND
     1     1     2   2
     2     1     3   1
     3     4     1  am
     4     5     4   1
     5     6     5   1
     6     5     8   1
     7     6     7   2
     8    26     6  am
     9     8     9   1
    10     9    10  ar
    11     9    11  ar
    12    10    12  ar
    13    11    13  ar
    14    12    14  ar
    15    13    14  ar
    16    14    15   1
    17    15    16   1
    18    16    17  ar
    19    16    18  ar
    20    16    19  ar
    21    27    20   2
    22    22    21   1
    23    23    21   1
    24    24    22   1
    25    25    23   1
    26    28    24   1
    27    28    25   1
    28    28    26   1
    29    27    28   1
    30    27    29  am
    31    29    30   1
    32    30    31   1
    33    30    33   1
    34    31    32   2
    35    31    37  am
    36    33    34   1
    37    34    35   2
    38    34    36  am
    39     3    38   1
    40     3    39   1
    41     3    40   1
    42     4    41   1
    43     5    42   1
    44     8    43   1
    45     8    44   1
    46    10    45   1
    47    11    46   1
    48    12    47   1
    49    13    48   1
    50    21    49   1
    51    21    50   1
    52    22    51   1
    53    22    52   1
    54    23    53   1
    55    23    54   1
    56    24    55   1
    57    24    56   1
    58    25    57   1
    59    25    58   1
    60    26    59   1
    61    29    60   1
    62    30    61   1
    63    33    62   1
    64    33    63   1
    65    36    64   1
    66    36    65   1
    67    37    66   1
    68    37    67   1
@<TRIPOS>SUBSTRUCTURE
     1  ACE      1

