@<TRIPOS>MOLECULE
3s8o_ligand_054
    67    68
SMALL
GAST_HUCK
****
This file was generated by PARSER (from files_GN.cpp)

@<TRIPOS>ATOM
      1 C          10.0539  -10.2458   -2.4093 C.2         1 ACE       0.1753
      2 O           8.8993  -10.5430   -2.1282 O.2         1 ACE      -0.3972
      3 CH3        11.1067  -11.1425   -1.9923 C.3         1 ACE       0.0258
      4 N          10.3527   -9.1370   -3.0712 N.am        1 ACE      -0.2628
      5 CA          9.4466   -8.1207   -3.5467 C.3         1 ACE       0.1465
      6 C           9.4419   -8.0848   -5.0112 C.2         1 ACE       0.2045
      7 O           9.1950   -7.0249   -5.5721 O.2         1 ACE      -0.3944
      8 CB          9.7949   -6.7619   -2.8527 C.3         1 ACE       0.0400
      9 CG         11.1493   -6.2238   -3.1750 C.ar        1 ACE      -0.0004
     10 CD1        11.3269   -5.1909   -4.1252 C.ar        1 ACE      -0.0239
     11 CD2        12.2967   -6.7525   -2.5359 C.ar        1 ACE      -0.0239
     12 CE1        12.6103   -4.7049   -4.4350 C.ar        1 ACE       0.0115
     13 CE2        13.5810   -6.2857   -2.8615 C.ar        1 ACE       0.0115
     14 CZ         13.7457   -5.2348   -3.7849 C.ar        1 ACE       0.1728
     15 OH         14.9987   -4.7640   -4.0746 O.3         1 ACE      -0.2040
     16 P          15.6518   -3.9804   -2.8944 P.3         1 ACE       0.1348
     17 O1P        15.3154   -2.5804   -2.9424 O.co2       1 ACE      -0.6653
     18 O2P        15.2902   -4.5200   -1.6077 O.co2       1 ACE      -0.6653
     19 O3P        17.0808   -4.0872   -3.0185 O.co2       1 ACE      -0.6653
     20 O           9.4741  -11.7242   -6.4049 O.2         1 ACE      -0.3419
     21 CD          9.4795   -8.0365   -9.8681 C.3         1 ACE      -0.0532
     22 CG         10.8201   -8.6000   -9.3313 C.3         1 ACE      -0.0516
     23 CE          8.2264   -8.7684   -9.3246 C.3         1 ACE      -0.0516
     24 CB         10.8288   -8.7860   -7.7871 C.3         1 ACE      -0.0199
     25 CH          8.2358   -8.8917   -7.7766 C.3         1 ACE      -0.0199
     26 N           9.5763   -9.2135   -5.7104 N.am        1 ACE      -0.2738
     27 C           9.5817  -10.9488   -7.3496 C.2         1 ACE       0.2267
     28 CA          9.5597   -9.4732   -7.1497 C.3         1 ACE       0.1331
     29 N           9.6867  -11.4764   -8.5645 N.am        1 ACE      -0.2608
     30 CA          9.6121  -12.8490   -8.9727 C.3         1 ACE       0.1474
     31 C          10.9535  -13.2425   -9.3784 C.2         1 ACE       0.2017
     32 O          11.5910  -14.0408   -8.7088 O.2         1 ACE      -0.3945
     33 CB          8.5261  -12.9536  -10.0940 C.3         1 ACE       0.0774
     34 CG          8.4251  -14.2528  -10.7407 C.2         1 ACE       0.1781
     35 OD1         7.4398  -14.9618  -10.5872 O.2         1 ACE      -0.3970
     36 ND2         9.3707  -14.6776  -11.5483 N.am        1 ACE      -0.3007
     37 N          11.5157  -12.7646  -10.4692 N.am        1 ACE      -0.2988
     38 H1         12.0934  -10.7745   -2.2861 H           1 ACE       0.0467
     39 H2         10.9573  -12.1239   -2.4502 H           1 ACE       0.0467
     40 H3         11.0934  -11.2539   -0.9052 H           1 ACE       0.0467
     41 H4         11.2911   -8.9961   -3.2637 H           1 ACE       0.1885
     42 H5          8.4201   -8.3571   -3.2558 H           1 ACE       0.0840
     43 H6          9.7177   -6.8864   -1.7696 H           1 ACE       0.0584
     44 H7          9.0283   -6.0262   -3.1204 H           1 ACE       0.0584
     45 H8         10.5181   -4.7862   -4.6071 H           1 ACE       0.0703
     46 H9         12.2059   -7.4842   -1.8267 H           1 ACE       0.0703
     47 H10        12.7188   -3.9597   -5.1271 H           1 ACE       0.0736
     48 H11        14.3956   -6.6935   -2.3992 H           1 ACE       0.0736
     49 H12         9.4787   -8.1049  -10.9574 H           1 ACE       0.0265
     50 H13         9.4086   -6.9783   -9.6048 H           1 ACE       0.0265
     51 H14        11.6175   -7.9050   -9.6052 H           1 ACE       0.0265
     52 H15        11.0587   -9.5392   -9.8283 H           1 ACE       0.0265
     53 H16         8.1421   -9.7546   -9.7793 H           1 ACE       0.0265
     54 H17         7.3365   -8.2080   -9.6252 H           1 ACE       0.0265
     55 H18        10.9546   -7.7846   -7.3714 H           1 ACE       0.0277
     56 H19        11.7266   -9.3447   -7.5082 H           1 ACE       0.0277
     57 H20         7.3794   -9.4998   -7.4672 H           1 ACE       0.0277
     58 H21         8.0401   -7.8861   -7.4030 H           1 ACE       0.0277
     59 H22         9.7505   -9.9924   -5.1624 H           1 ACE       0.1839
     60 H23         9.7924  -10.8528   -9.2871 H           1 ACE       0.1891
     61 H24         9.2889  -13.4836   -8.1426 H           1 ACE       0.0828
     62 H25         8.7129  -12.2021  -10.8675 H           1 ACE       0.0551
     63 H26         7.5593  -12.7021   -9.6442 H           1 ACE       0.0551
     64 H27         9.3374  -15.5656  -11.9315 H           1 ACE       0.1814
     65 H28        10.1439  -14.1180  -11.7233 H           1 ACE       0.1814
     66 H29        12.3918  -13.0752  -10.7418 H           1 ACE       0.1815
     67 H30        11.0353  -12.1357  -11.0316 H           1 ACE       0.1815
@<TRIPOS>BOND
     1     1     2   2
     2     1     3   1
     3     4     1  am
     4     5     4   1
     5     6     5   1
     6     5     8   1
     7     6     7   2
     8    26     6  am
     9     8     9   1
    10     9    10  ar
    11     9    11  ar
    12    10    12  ar
    13    11    13  ar
    14    12    14  ar
    15    13    14  ar
    16    14    15   1
    17    15    16   1
    18    16    17  ar
    19    16    18  ar
    20    16    19  ar
    21    27    20   2
    22    22    21   1
    23    23    21   1
    24    24    22   1
    25    25    23   1
    26    28    24   1
    27    28    25   1
    28    28    26   1
    29    27    28   1
    30    27    29  am
    31    29    30   1
    32    30    31   1
    33    30    33   1
    34    31    32   2
    35    31    37  am
    36    33    34   1
    37    34    35   2
    38    34    36  am
    39     3    38   1
    40     3    39   1
    41     3    40   1
    42     4    41   1
    43     5    42   1
    44     8    43   1
    45     8    44   1
    46    10    45   1
    47    11    46   1
    48    12    47   1
    49    13    48   1
    50    21    49   1
    51    21    50   1
    52    22    51   1
    53    22    52   1
    54    23    53   1
    55    23    54   1
    56    24    55   1
    57    24    56   1
    58    25    57   1
    59    25    58   1
    60    26    59   1
    61    29    60   1
    62    30    61   1
    63    33    62   1
    64    33    63   1
    65    36    64   1
    66    36    65   1
    67    37    66   1
    68    37    67   1
@<TRIPOS>SUBSTRUCTURE
     1  ACE      1

