@<TRIPOS>MOLECULE
3s8o_ligand_004
    67    68
SMALL
GAST_HUCK
****
This file was generated by PARSER (from files_GN.cpp)

@<TRIPOS>ATOM
      1 C           5.4572   -6.8585    7.2555 C.2         1 ACE       0.1753
      2 O           5.6944   -7.9444    7.7674 O.2         1 ACE      -0.3972
      3 CH3         4.9036   -5.8264    8.1057 C.3         1 ACE       0.0258
      4 N           5.6934   -6.6159    5.9702 N.am        1 ACE      -0.2628
      5 CA          6.1860   -7.5516    4.9868 C.3         1 ACE       0.1465
      6 C           7.5075   -7.1222    4.5423 C.2         1 ACE       0.2045
      7 O           7.6472   -5.9714    4.1458 O.2         1 ACE      -0.3944
      8 CB          5.2018   -7.7066    3.7740 C.3         1 ACE       0.0400
      9 CG          3.7484   -7.5829    4.0759 C.ar        1 ACE      -0.0004
     10 CD1         3.1892   -8.2073    5.2176 C.ar        1 ACE      -0.0239
     11 CD2         2.8808   -6.8528    3.2239 C.ar        1 ACE      -0.0239
     12 CE1         1.8163   -8.0992    5.4957 C.ar        1 ACE       0.0115
     13 CE2         1.5044   -6.7648    3.4876 C.ar        1 ACE       0.0115
     14 CZ          0.9491   -7.4177    4.6150 C.ar        1 ACE       0.1728
     15 OH         -0.3825   -7.3632    4.9326 O.3         1 ACE      -0.2040
     16 P          -1.3669   -7.9291    3.8671 P.3         1 ACE       0.1348
     17 O1P        -2.0510   -6.8461    3.2027 O.co2       1 ACE      -0.6653
     18 O2P        -0.7858   -8.7960    2.8693 O.co2       1 ACE      -0.6653
     19 O3P        -2.3712   -8.6938    4.5631 O.co2       1 ACE      -0.6653
     20 O          10.2243   -6.2303    2.2080 O.2         1 ACE      -0.3419
     21 CD         12.8264   -8.0784    4.6078 C.3         1 ACE      -0.0532
     22 CG         12.1026   -9.0572    3.6513 C.3         1 ACE      -0.0516
     23 CE         12.1397   -6.6921    4.6402 C.3         1 ACE      -0.0516
     24 CB         10.5919   -9.1621    3.9867 C.3         1 ACE      -0.0199
     25 CH         10.6095   -6.7999    4.9034 C.3         1 ACE      -0.0199
     26 N           8.5110   -7.9953    4.4485 N.am        1 ACE      -0.2738
     27 C           9.7523   -7.3155    2.5277 C.2         1 ACE       0.2267
     28 CA          9.8471   -7.7796    3.9285 C.3         1 ACE       0.1331
     29 N           9.1066   -8.0426    1.6183 N.am        1 ACE      -0.2608
     30 CA          8.9418   -7.7576    0.2190 C.3         1 ACE       0.1474
     31 C           7.5531   -7.3784   -0.0068 C.2         1 ACE       0.2017
     32 O           7.2776   -6.2466   -0.3873 O.2         1 ACE      -0.3945
     33 CB          9.4186   -9.0066   -0.5880 C.3         1 ACE       0.0774
     34 CG          9.0488   -9.0156   -1.9921 C.2         1 ACE       0.1781
     35 OD1         7.8687   -9.1174   -2.3138 O.2         1 ACE      -0.3970
     36 ND2         9.9399   -8.9721   -2.9563 N.am        1 ACE      -0.3007
     37 N           6.5523   -8.2150    0.1555 N.am        1 ACE      -0.2988
     38 H1          4.6812   -4.9140    7.5472 H           1 ACE       0.0467
     39 H2          5.6186   -5.5818    8.8936 H           1 ACE       0.0467
     40 H3          3.9804   -6.1886    8.5656 H           1 ACE       0.0467
     41 H4          5.5014   -5.7189    5.6557 H           1 ACE       0.1885
     42 H5          6.2804   -8.5466    5.4414 H           1 ACE       0.0840
     43 H6          5.3565   -8.6951    3.3347 H           1 ACE       0.0584
     44 H7          5.4652   -6.9862    3.0000 H           1 ACE       0.0584
     45 H8          3.7827   -8.7385    5.8563 H           1 ACE       0.0703
     46 H9          3.2502   -6.3842    2.3905 H           1 ACE       0.0703
     47 H10         1.4340   -8.5368    6.3375 H           1 ACE       0.0736
     48 H11         0.8987   -6.2354    2.8559 H           1 ACE       0.0736
     49 H12        13.8664   -7.9637    4.2848 H           1 ACE       0.0265
     50 H13        12.8350   -8.4987    5.6154 H           1 ACE       0.0265
     51 H14        12.5595  -10.0441    3.7394 H           1 ACE       0.0265
     52 H15        12.2329   -8.7208    2.6205 H           1 ACE       0.0265
     53 H16        12.3224   -6.1796    3.6927 H           1 ACE       0.0265
     54 H17        12.5989   -6.0848    5.4284 H           1 ACE       0.0265
     55 H18        10.4964   -9.5876    4.9911 H           1 ACE       0.0277
     56 H19        10.1247   -9.8741    3.3031 H           1 ACE       0.0277
     57 H20        10.1849   -5.7937    4.8469 H           1 ACE       0.0277
     58 H21        10.4758   -7.1414    5.9352 H           1 ACE       0.0277
     59 H22         8.3062   -8.9001    4.7362 H           1 ACE       0.1839
     60 H23         8.6900   -8.8668    1.9244 H           1 ACE       0.1891
     61 H24         9.5870   -6.9255   -0.0835 H           1 ACE       0.0828
     62 H25         9.0241   -9.9197   -0.1360 H           1 ACE       0.0551
     63 H26        10.5106   -9.0594   -0.5036 H           1 ACE       0.0551
     64 H27         9.6514   -8.9970   -3.8848 H           1 ACE       0.1814
     65 H28        10.8895   -8.9321   -2.7467 H           1 ACE       0.1814
     66 H29         5.6441   -7.9197   -0.0180 H           1 ACE       0.1815
     67 H30         6.7153   -9.1206    0.4582 H           1 ACE       0.1815
@<TRIPOS>BOND
     1     1     2   2
     2     1     3   1
     3     4     1  am
     4     5     4   1
     5     6     5   1
     6     5     8   1
     7     6     7   2
     8    26     6  am
     9     8     9   1
    10     9    10  ar
    11     9    11  ar
    12    10    12  ar
    13    11    13  ar
    14    12    14  ar
    15    13    14  ar
    16    14    15   1
    17    15    16   1
    18    16    17  ar
    19    16    18  ar
    20    16    19  ar
    21    27    20   2
    22    22    21   1
    23    23    21   1
    24    24    22   1
    25    25    23   1
    26    28    24   1
    27    28    25   1
    28    28    26   1
    29    27    28   1
    30    27    29  am
    31    29    30   1
    32    30    31   1
    33    30    33   1
    34    31    32   2
    35    31    37  am
    36    33    34   1
    37    34    35   2
    38    34    36  am
    39     3    38   1
    40     3    39   1
    41     3    40   1
    42     4    41   1
    43     5    42   1
    44     8    43   1
    45     8    44   1
    46    10    45   1
    47    11    46   1
    48    12    47   1
    49    13    48   1
    50    21    49   1
    51    21    50   1
    52    22    51   1
    53    22    52   1
    54    23    53   1
    55    23    54   1
    56    24    55   1
    57    24    56   1
    58    25    57   1
    59    25    58   1
    60    26    59   1
    61    29    60   1
    62    30    61   1
    63    33    62   1
    64    33    63   1
    65    36    64   1
    66    36    65   1
    67    37    66   1
    68    37    67   1
@<TRIPOS>SUBSTRUCTURE
     1  ACE      1

