@<TRIPOS>MOLECULE
3s8o_ligand_030
    67    68
SMALL
GAST_HUCK
****
This file was generated by PARSER (from files_GN.cpp)

@<TRIPOS>ATOM
      1 C           7.8149   -8.9299   -7.1656 C.2         1 ACE       0.1753
      2 O           7.9189   -9.7163   -8.0989 O.2         1 ACE      -0.3972
      3 CH3         6.6335   -8.0994   -7.1113 C.3         1 ACE       0.0258
      4 N           8.7390   -8.8314   -6.2178 N.am        1 ACE      -0.2628
      5 CA          9.9364   -9.6230   -6.0830 C.3         1 ACE       0.1465
      6 C          10.6130   -9.2307   -4.8435 C.2         1 ACE       0.2045
      7 O          10.8108   -8.0402   -4.6345 O.2         1 ACE      -0.3944
      8 CB         10.9126   -9.5049   -7.3034 C.3         1 ACE       0.0400
      9 CG         10.7506  -10.5282   -8.3824 C.ar        1 ACE      -0.0004
     10 CD1        10.6885  -10.1492   -9.7466 C.ar        1 ACE      -0.0239
     11 CD2        10.7758  -11.9086   -8.0726 C.ar        1 ACE      -0.0239
     12 CE1        10.6594  -11.1233  -10.7643 C.ar        1 ACE       0.0115
     13 CE2        10.7681  -12.8813   -9.0893 C.ar        1 ACE       0.0115
     14 CZ         10.6830  -12.4959  -10.4438 C.ar        1 ACE       0.1728
     15 OH         10.7444  -13.4224  -11.4524 O.3         1 ACE      -0.2040
     16 P           9.3970  -14.1468  -11.7410 P.3         1 ACE       0.1348
     17 O1P         9.5439  -14.8603  -12.9827 O.co2       1 ACE      -0.6653
     18 O2P         9.0840  -15.1316  -10.7319 O.co2       1 ACE      -0.6653
     19 O3P         8.2851  -13.2387  -11.9038 O.co2       1 ACE      -0.6653
     20 O          13.5498   -9.0786   -3.4486 O.2         1 ACE      -0.3419
     21 CD          9.0682  -10.0573   -0.9228 C.3         1 ACE      -0.0532
     22 CG          9.5610  -11.3437   -1.6220 C.3         1 ACE      -0.0516
     23 CE          9.5661   -8.7775   -1.6328 C.3         1 ACE      -0.0516
     24 CB         11.0983  -11.3166   -1.8695 C.3         1 ACE      -0.0199
     25 CH         11.1029   -8.7964   -1.8491 C.3         1 ACE      -0.0199
     26 N          10.9786  -10.1600   -3.9697 N.am        1 ACE      -0.2738
     27 C          13.0663  -10.0271   -2.8379 C.2         1 ACE       0.2267
     28 CA         11.5958  -10.0507   -2.6638 C.3         1 ACE       0.1331
     29 N          13.8653  -11.0015   -2.3978 N.am        1 ACE      -0.2608
     30 CA         15.2906  -11.2174   -2.5171 C.3         1 ACE       0.1474
     31 C          15.8354  -11.3011   -1.1674 C.2         1 ACE       0.2017
     32 O          16.3895  -10.3401   -0.6418 O.2         1 ACE      -0.3945
     33 CB         16.1288  -10.2711   -3.4412 C.3         1 ACE       0.0774
     34 CG         15.5987  -10.0312   -4.7733 C.2         1 ACE       0.1781
     35 OD1        15.9796   -9.0421   -5.3968 O.2         1 ACE      -0.3970
     36 ND2        14.7341  -10.8104   -5.3831 N.am        1 ACE      -0.3007
     37 N          15.7153  -12.3812   -0.4249 N.am        1 ACE      -0.2988
     38 H1          6.5769   -7.5457   -6.1706 H           1 ACE       0.0467
     39 H2          5.7331   -8.7134   -7.2004 H           1 ACE       0.0467
     40 H3          6.6538   -7.3837   -7.9352 H           1 ACE       0.0467
     41 H4          8.5576   -8.1833   -5.5167 H           1 ACE       0.1885
     42 H5          9.6200  -10.6649   -5.9847 H           1 ACE       0.0840
     43 H6         11.9425   -9.6081   -6.9533 H           1 ACE       0.0584
     44 H7         10.8337   -8.4938   -7.7118 H           1 ACE       0.0584
     45 H8         10.6882   -9.1637  -10.0110 H           1 ACE       0.0703
     46 H9         10.8480  -12.2210   -7.1008 H           1 ACE       0.0703
     47 H10        10.6353  -10.8293  -11.7433 H           1 ACE       0.0736
     48 H11        10.8354  -13.8712   -8.8430 H           1 ACE       0.0736
     49 H12         9.4321  -10.0560    0.1083 H           1 ACE       0.0265
     50 H13         7.9764  -10.0440   -0.8953 H           1 ACE       0.0265
     51 H14         9.0342  -11.4588   -2.5727 H           1 ACE       0.0265
     52 H15         9.3150  -12.2040   -0.9981 H           1 ACE       0.0265
     53 H16         9.3062   -7.9115   -1.0205 H           1 ACE       0.0265
     54 H17         9.0587   -8.6693   -2.5966 H           1 ACE       0.0265
     55 H18        11.3568  -12.2350   -2.4089 H           1 ACE       0.0277
     56 H19        11.5974  -11.3566   -0.8946 H           1 ACE       0.0277
     57 H20        11.5881   -8.7871   -0.8685 H           1 ACE       0.0277
     58 H21        11.3993   -7.8711   -2.3471 H           1 ACE       0.0277
     59 H22        10.7647  -11.0694   -4.2326 H           1 ACE       0.1839
     60 H23        13.4209  -11.7175   -1.9225 H           1 ACE       0.1891
     61 H24        15.3927  -12.2180   -2.9612 H           1 ACE       0.0828
     62 H25        17.1408  -10.6818   -3.5562 H           1 ACE       0.0551
     63 H26        16.2400   -9.3018   -2.9442 H           1 ACE       0.0551
     64 H27        14.4130  -10.5795   -6.2665 H           1 ACE       0.1814
     65 H28        14.3743  -11.5925   -4.9420 H           1 ACE       0.1814
     66 H29        16.0753  -12.3856    0.4752 H           1 ACE       0.1815
     67 H30        15.2660  -13.1770   -0.7548 H           1 ACE       0.1815
@<TRIPOS>BOND
     1     1     2   2
     2     1     3   1
     3     4     1  am
     4     5     4   1
     5     6     5   1
     6     5     8   1
     7     6     7   2
     8    26     6  am
     9     8     9   1
    10     9    10  ar
    11     9    11  ar
    12    10    12  ar
    13    11    13  ar
    14    12    14  ar
    15    13    14  ar
    16    14    15   1
    17    15    16   1
    18    16    17  ar
    19    16    18  ar
    20    16    19  ar
    21    27    20   2
    22    22    21   1
    23    23    21   1
    24    24    22   1
    25    25    23   1
    26    28    24   1
    27    28    25   1
    28    28    26   1
    29    27    28   1
    30    27    29  am
    31    29    30   1
    32    30    31   1
    33    30    33   1
    34    31    32   2
    35    31    37  am
    36    33    34   1
    37    34    35   2
    38    34    36  am
    39     3    38   1
    40     3    39   1
    41     3    40   1
    42     4    41   1
    43     5    42   1
    44     8    43   1
    45     8    44   1
    46    10    45   1
    47    11    46   1
    48    12    47   1
    49    13    48   1
    50    21    49   1
    51    21    50   1
    52    22    51   1
    53    22    52   1
    54    23    53   1
    55    23    54   1
    56    24    55   1
    57    24    56   1
    58    25    57   1
    59    25    58   1
    60    26    59   1
    61    29    60   1
    62    30    61   1
    63    33    62   1
    64    33    63   1
    65    36    64   1
    66    36    65   1
    67    37    66   1
    68    37    67   1
@<TRIPOS>SUBSTRUCTURE
     1  ACE      1

