@<TRIPOS>MOLECULE
3s8o_ligand_033
    67    68
SMALL
GAST_HUCK
****
This file was generated by PARSER (from files_GN.cpp)

@<TRIPOS>ATOM
      1 C           6.0103   -8.7054    3.8395 C.2         1 ACE       0.1753
      2 O           5.5559   -7.6728    4.3143 O.2         1 ACE      -0.3972
      3 CH3         5.1111   -9.8277    3.6819 C.3         1 ACE       0.0258
      4 N           7.2610   -8.7806    3.4033 N.am        1 ACE      -0.2628
      5 CA          8.2294   -7.7121    3.3217 C.3         1 ACE       0.1465
      6 C           8.2076   -7.2148    1.9475 C.2         1 ACE       0.2045
      7 O           8.1564   -5.9967    1.7648 O.2         1 ACE      -0.3944
      8 CB          9.6327   -8.2425    3.7708 C.3         1 ACE       0.0400
      9 CG         10.7802   -7.2780    3.7106 C.ar        1 ACE      -0.0004
     10 CD1        11.6391   -7.0641    4.8187 C.ar        1 ACE      -0.0239
     11 CD2        11.1011   -6.6129    2.5012 C.ar        1 ACE      -0.0239
     12 CE1        12.7772   -6.2404    4.7100 C.ar        1 ACE       0.0115
     13 CE2        12.2310   -5.7902    2.3874 C.ar        1 ACE       0.0115
     14 CZ         13.0736   -5.5787    3.4975 C.ar        1 ACE       0.1728
     15 OH         14.1917   -4.8078    3.3165 O.3         1 ACE      -0.2040
     16 P          14.2123   -3.5015    4.1707 P.3         1 ACE       0.1348
     17 O1P        15.3633   -2.7285    3.7755 O.co2       1 ACE      -0.6653
     18 O2P        13.0574   -2.6643    3.9451 O.co2       1 ACE      -0.6653
     19 O3P        14.3510   -3.7719    5.5832 O.co2       1 ACE      -0.6653
     20 O           7.3791   -5.8633   -1.5062 O.2         1 ACE      -0.3419
     21 CD         10.7212   -9.4763   -1.4280 C.3         1 ACE      -0.0532
     22 CG          9.3670  -10.1335   -1.0667 C.3         1 ACE      -0.0516
     23 CE         10.9148   -8.1554   -0.6465 C.3         1 ACE      -0.0516
     24 CB          8.1800   -9.1520   -1.2722 C.3         1 ACE      -0.0199
     25 CH          9.7267   -7.1798   -0.8863 C.3         1 ACE      -0.0199
     26 N           8.2611   -8.0529    0.9164 N.am        1 ACE      -0.2738
     27 C           7.1894   -6.9231   -0.9214 C.2         1 ACE       0.2267
     28 CA          8.3209   -7.7823   -0.5103 C.3         1 ACE       0.1331
     29 N           5.9548   -7.3000   -0.6091 N.am        1 ACE      -0.2608
     30 CA          4.7091   -6.6549   -0.9206 C.3         1 ACE       0.1474
     31 C           4.1168   -6.1069    0.2945 C.2         1 ACE       0.2017
     32 O           3.8662   -4.9119    0.3783 O.2         1 ACE      -0.3945
     33 CB          3.7620   -7.6316   -1.6886 C.3         1 ACE       0.0774
     34 CG          3.5498   -8.9771   -1.1727 C.2         1 ACE       0.1781
     35 OD1         4.1648   -9.4368   -0.2211 O.2         1 ACE      -0.3970
     36 ND2         2.6822   -9.7693   -1.7624 N.am        1 ACE      -0.3007
     37 N           3.8558   -6.8417    1.3529 N.am        1 ACE      -0.2988
     38 H1          5.6216  -10.7005    3.2689 H           1 ACE       0.0467
     39 H2          4.2923   -9.5642    3.0129 H           1 ACE       0.0467
     40 H3          4.6936  -10.0996    4.6497 H           1 ACE       0.0467
     41 H4          7.5143   -9.6140    2.9732 H           1 ACE       0.1885
     42 H5          7.9570   -6.9099    4.0190 H           1 ACE       0.0840
     43 H6          9.8995   -9.1124    3.1675 H           1 ACE       0.0584
     44 H7          9.5240   -8.6079    4.7964 H           1 ACE       0.0584
     45 H8         11.4595   -7.5382    5.7121 H           1 ACE       0.0703
     46 H9         10.5253   -6.7417    1.6814 H           1 ACE       0.0703
     47 H10        13.4046   -6.1272    5.5155 H           1 ACE       0.0736
     48 H11        12.4472   -5.3510    1.4872 H           1 ACE       0.0736
     49 H12        10.7577   -9.2758   -2.5009 H           1 ACE       0.0265
     50 H13        11.5357  -10.1670   -1.1863 H           1 ACE       0.0265
     51 H14         9.3994  -10.4684   -0.0272 H           1 ACE       0.0265
     52 H15         9.2213  -11.0171   -1.6923 H           1 ACE       0.0265
     53 H16        11.8488   -7.6798   -0.9603 H           1 ACE       0.0265
     54 H17        11.0002   -8.3879    0.4162 H           1 ACE       0.0265
     55 H18         7.2658   -9.6673   -0.9673 H           1 ACE       0.0277
     56 H19         8.0937   -8.9537   -2.3472 H           1 ACE       0.0277
     57 H20         9.7384   -6.9082   -1.9470 H           1 ACE       0.0277
     58 H21         9.8986   -6.2576   -0.3300 H           1 ACE       0.0277
     59 H22         8.2179   -8.9935    1.1565 H           1 ACE       0.1839
     60 H23         5.8820   -8.1188   -0.0963 H           1 ACE       0.1891
     61 H24         4.8890   -5.8193   -1.6082 H           1 ACE       0.0828
     62 H25         4.1581   -7.7437   -2.7021 H           1 ACE       0.0551
     63 H26         2.7848   -7.1480   -1.7839 H           1 ACE       0.0551
     64 H27         2.5362  -10.6690   -1.4267 H           1 ACE       0.1814
     65 H28         2.1757   -9.4550   -2.5274 H           1 ACE       0.1814
     66 H29         3.4765   -6.4330    2.1463 H           1 ACE       0.1815
     67 H30         4.0694   -7.7877    1.3578 H           1 ACE       0.1815
@<TRIPOS>BOND
     1     1     2   2
     2     1     3   1
     3     4     1  am
     4     5     4   1
     5     6     5   1
     6     5     8   1
     7     6     7   2
     8    26     6  am
     9     8     9   1
    10     9    10  ar
    11     9    11  ar
    12    10    12  ar
    13    11    13  ar
    14    12    14  ar
    15    13    14  ar
    16    14    15   1
    17    15    16   1
    18    16    17  ar
    19    16    18  ar
    20    16    19  ar
    21    27    20   2
    22    22    21   1
    23    23    21   1
    24    24    22   1
    25    25    23   1
    26    28    24   1
    27    28    25   1
    28    28    26   1
    29    27    28   1
    30    27    29  am
    31    29    30   1
    32    30    31   1
    33    30    33   1
    34    31    32   2
    35    31    37  am
    36    33    34   1
    37    34    35   2
    38    34    36  am
    39     3    38   1
    40     3    39   1
    41     3    40   1
    42     4    41   1
    43     5    42   1
    44     8    43   1
    45     8    44   1
    46    10    45   1
    47    11    46   1
    48    12    47   1
    49    13    48   1
    50    21    49   1
    51    21    50   1
    52    22    51   1
    53    22    52   1
    54    23    53   1
    55    23    54   1
    56    24    55   1
    57    24    56   1
    58    25    57   1
    59    25    58   1
    60    26    59   1
    61    29    60   1
    62    30    61   1
    63    33    62   1
    64    33    63   1
    65    36    64   1
    66    36    65   1
    67    37    66   1
    68    37    67   1
@<TRIPOS>SUBSTRUCTURE
     1  ACE      1

