@<TRIPOS>MOLECULE
3s8o_ligand_063
    67    68
SMALL
GAST_HUCK
****
This file was generated by PARSER (from files_GN.cpp)

@<TRIPOS>ATOM
      1 C           7.8011   -8.2384   -6.9613 C.2         1 ACE       0.1753
      2 O           8.5384   -7.4026   -6.4367 O.2         1 ACE      -0.3972
      3 CH3         6.4035   -7.9088   -7.1616 C.3         1 ACE       0.0258
      4 N           8.2321   -9.4468   -7.2893 N.am        1 ACE      -0.2628
      5 CA          9.5376  -10.0282   -7.1186 C.3         1 ACE       0.1465
      6 C          10.1082   -9.7795   -5.7889 C.2         1 ACE       0.2045
      7 O          10.3359   -8.6251   -5.4460 O.2         1 ACE      -0.3944
      8 CB         10.5192   -9.6766   -8.2949 C.3         1 ACE       0.0400
      9 CG         10.5583  -10.6858   -9.3988 C.ar        1 ACE      -0.0004
     10 CD1        10.9127  -12.0288   -9.1128 C.ar        1 ACE      -0.0239
     11 CD2        10.2888  -10.3400  -10.7436 C.ar        1 ACE      -0.0239
     12 CE1        10.9975  -12.9898  -10.1347 C.ar        1 ACE       0.0115
     13 CE2        10.3790  -11.3028  -11.7719 C.ar        1 ACE       0.0115
     14 CZ         10.7606  -12.6301  -11.4748 C.ar        1 ACE       0.1728
     15 OH         10.8233  -13.5981  -12.4421 O.3         1 ACE      -0.2040
     16 P          12.1833  -13.6776  -13.1831 P.3         1 ACE       0.1348
     17 O1P        12.3925  -15.0604  -13.5608 O.co2       1 ACE      -0.6653
     18 O2P        12.1606  -12.9026  -14.4042 O.co2       1 ACE      -0.6653
     19 O3P        13.3293  -13.2885  -12.3878 O.co2       1 ACE      -0.6653
     20 O          12.7245  -11.9061   -4.8539 O.2         1 ACE      -0.3419
     21 CD          9.8794  -10.6434   -0.7955 C.3         1 ACE      -0.0532
     22 CG         10.2630  -12.0216   -1.3950 C.3         1 ACE      -0.0516
     23 CE         10.8099   -9.5392   -1.3325 C.3         1 ACE      -0.0516
     24 CB         10.1237  -11.9921   -2.9373 C.3         1 ACE      -0.0199
     25 CH         10.8258   -9.5079   -2.8944 C.3         1 ACE      -0.0199
     26 N          10.4173  -10.8190   -5.0076 N.am        1 ACE      -0.2738
     27 C          12.3692  -11.3787   -3.7973 C.2         1 ACE       0.2267
     28 CA         10.9797  -10.8856   -3.6664 C.3         1 ACE       0.1331
     29 N          13.2165  -11.4079   -2.7745 N.am        1 ACE      -0.2608
     30 CA         14.5238  -12.0155   -2.7494 C.3         1 ACE       0.1474
     31 C          15.1967  -11.6647   -1.5030 C.2         1 ACE       0.2017
     32 O          15.5708  -10.5189   -1.2982 O.2         1 ACE      -0.3945
     33 CB         15.3969  -11.6869   -4.0053 C.3         1 ACE       0.0774
     34 CG         15.4014  -10.2932   -4.4183 C.2         1 ACE       0.1781
     35 OD1        15.9247   -9.4343   -3.7278 O.2         1 ACE      -0.3970
     36 ND2        14.8504   -9.9076   -5.5553 N.am        1 ACE      -0.3007
     37 N          15.4656  -12.5490   -0.5707 N.am        1 ACE      -0.2988
     38 H1          5.8674   -8.7230   -7.6699 H           1 ACE       0.0467
     39 H2          6.3257   -7.0010   -7.7719 H           1 ACE       0.0467
     40 H3          5.9273   -7.7298   -6.1892 H           1 ACE       0.0467
     41 H4          7.5741  -10.0316   -7.7012 H           1 ACE       0.1885
     42 H5          9.3258  -11.0994   -7.1808 H           1 ACE       0.0840
     43 H6         11.5451   -9.5931   -7.9241 H           1 ACE       0.0584
     44 H7         10.2658   -8.6897   -8.6943 H           1 ACE       0.0584
     45 H8         11.1138  -12.3158   -8.1501 H           1 ACE       0.0703
     46 H9         10.0305   -9.3811  -10.9913 H           1 ACE       0.0703
     47 H10        11.2476  -13.9541   -9.8984 H           1 ACE       0.0736
     48 H11        10.1787  -11.0357  -12.7374 H           1 ACE       0.0736
     49 H12         9.9489  -10.6847    0.2921 H           1 ACE       0.0265
     50 H13         8.8411  -10.4006   -1.0524 H           1 ACE       0.0265
     51 H14         9.5976  -12.7848   -0.9810 H           1 ACE       0.0265
     52 H15        11.2899  -12.2856   -1.1194 H           1 ACE       0.0265
     53 H16        11.8152   -9.6894   -0.9373 H           1 ACE       0.0265
     54 H17        10.4596   -8.5698   -0.9639 H           1 ACE       0.0265
     55 H18         9.0604  -11.8447   -3.1577 H           1 ACE       0.0277
     56 H19        10.3829  -12.9856   -3.3175 H           1 ACE       0.0277
     57 H20        11.6298   -8.8291   -3.1949 H           1 ACE       0.0277
     58 H21         9.8823   -9.0492   -3.1981 H           1 ACE       0.0277
     59 H22        10.3364  -11.6761   -5.4519 H           1 ACE       0.1839
     60 H23        12.9114  -11.0115   -1.9482 H           1 ACE       0.1891
     61 H24        14.3639  -13.0995   -2.7438 H           1 ACE       0.0828
     62 H25        15.0409  -12.3046   -4.8312 H           1 ACE       0.0551
     63 H26        16.4336  -11.9945   -3.8188 H           1 ACE       0.0551
     64 H27        14.8772   -8.9732   -5.8104 H           1 ACE       0.1814
     65 H28        14.4026  -10.5504   -6.1311 H           1 ACE       0.1814
     66 H29        15.9229  -12.2739    0.2422 H           1 ACE       0.1815
     67 H30        15.2116  -13.4803   -0.6742 H           1 ACE       0.1815
@<TRIPOS>BOND
     1     1     2   2
     2     1     3   1
     3     4     1  am
     4     5     4   1
     5     6     5   1
     6     5     8   1
     7     6     7   2
     8    26     6  am
     9     8     9   1
    10     9    10  ar
    11     9    11  ar
    12    10    12  ar
    13    11    13  ar
    14    12    14  ar
    15    13    14  ar
    16    14    15   1
    17    15    16   1
    18    16    17  ar
    19    16    18  ar
    20    16    19  ar
    21    27    20   2
    22    22    21   1
    23    23    21   1
    24    24    22   1
    25    25    23   1
    26    28    24   1
    27    28    25   1
    28    28    26   1
    29    27    28   1
    30    27    29  am
    31    29    30   1
    32    30    31   1
    33    30    33   1
    34    31    32   2
    35    31    37  am
    36    33    34   1
    37    34    35   2
    38    34    36  am
    39     3    38   1
    40     3    39   1
    41     3    40   1
    42     4    41   1
    43     5    42   1
    44     8    43   1
    45     8    44   1
    46    10    45   1
    47    11    46   1
    48    12    47   1
    49    13    48   1
    50    21    49   1
    51    21    50   1
    52    22    51   1
    53    22    52   1
    54    23    53   1
    55    23    54   1
    56    24    55   1
    57    24    56   1
    58    25    57   1
    59    25    58   1
    60    26    59   1
    61    29    60   1
    62    30    61   1
    63    33    62   1
    64    33    63   1
    65    36    64   1
    66    36    65   1
    67    37    66   1
    68    37    67   1
@<TRIPOS>SUBSTRUCTURE
     1  ACE      1

