@<TRIPOS>MOLECULE
3s8o_ligand_057
    67    68
SMALL
GAST_HUCK
****
This file was generated by PARSER (from files_GN.cpp)

@<TRIPOS>ATOM
      1 C          13.3772  -10.2080   -3.3020 C.2         1 ACE       0.1753
      2 O          13.3422  -10.9458   -2.3247 O.2         1 ACE      -0.3972
      3 CH3        14.1381   -8.9839   -3.2150 C.3         1 ACE       0.0258
      4 N          12.6922  -10.4762   -4.4023 N.am        1 ACE      -0.2628
      5 CA         11.8543  -11.6216   -4.6440 C.3         1 ACE       0.1465
      6 C          11.4420  -11.5642   -6.0501 C.2         1 ACE       0.2045
      7 O          11.7676  -12.4984   -6.7909 O.2         1 ACE      -0.3944
      8 CB         10.6173  -11.8069   -3.6817 C.3         1 ACE       0.0400
      9 CG         10.3321  -10.7421   -2.6758 C.ar        1 ACE      -0.0004
     10 CD1        10.1015  -11.0790   -1.3200 C.ar        1 ACE      -0.0239
     11 CD2        10.2224   -9.3834   -3.0526 C.ar        1 ACE      -0.0239
     12 CE1         9.8230  -10.0829   -0.3679 C.ar        1 ACE       0.0115
     13 CE2         9.9736   -8.3811   -2.0944 C.ar        1 ACE       0.0115
     14 CZ          9.8031   -8.7194   -0.7393 C.ar        1 ACE       0.1728
     15 OH          9.4947   -7.7475    0.1766 O.3         1 ACE      -0.2040
     16 P          10.6165   -7.4612    1.2134 P.3         1 ACE       0.1348
     17 O1P        11.2287   -8.6629    1.7265 O.co2       1 ACE      -0.6653
     18 O2P        11.6408   -6.5460    0.7488 O.co2       1 ACE      -0.6653
     19 O3P         9.9783   -6.8336    2.3507 O.co2       1 ACE      -0.6653
     20 O          10.8927  -11.0604   -9.8583 O.2         1 ACE      -0.3419
     21 CD          9.3328   -7.2535   -7.2078 C.3         1 ACE      -0.0532
     22 CG         10.8313   -7.6229   -7.3128 C.3         1 ACE      -0.0516
     23 CE          8.4752   -8.4624   -6.7685 C.3         1 ACE      -0.0516
     24 CB         11.0510   -8.8648   -8.2207 C.3         1 ACE      -0.0199
     25 CH          8.7323   -9.7166   -7.6504 C.3         1 ACE      -0.0199
     26 N          10.7217  -10.5245   -6.4734 N.am        1 ACE      -0.2738
     27 C          10.3183  -11.2433   -8.7925 C.2         1 ACE       0.2267
     28 CA         10.2411  -10.1452   -7.7915 C.3         1 ACE       0.1331
     29 N           9.7943  -12.4360   -8.5191 N.am        1 ACE      -0.2608
     30 CA          9.7467  -13.6589   -9.3014 C.3         1 ACE       0.1474
     31 C          10.6277  -14.6866   -8.7452 C.2         1 ACE       0.2017
     32 O          11.2144  -14.5126   -7.6718 O.2         1 ACE      -0.3945
     33 CB          9.8857  -13.4622  -10.8516 C.3         1 ACE       0.0774
     34 CG          9.2898  -14.4654  -11.7245 C.2         1 ACE       0.1781
     35 OD1         8.7294  -15.4653  -11.2983 O.2         1 ACE      -0.3970
     36 ND2         9.3038  -14.2922  -13.0281 N.am        1 ACE      -0.3007
     37 N          10.7551  -15.8813   -9.2725 N.am        1 ACE      -0.2988
     38 H1         14.1765   -8.4652   -4.1752 H           1 ACE       0.0467
     39 H2         15.1585   -9.2060   -2.9037 H           1 ACE       0.0467
     40 H3         13.6734   -8.3228   -2.4832 H           1 ACE       0.0467
     41 H4         12.7852   -9.8448   -5.1338 H           1 ACE       0.1885
     42 H5         12.5091  -12.4973   -4.5196 H           1 ACE       0.0840
     43 H6         10.7491  -12.7641   -3.1680 H           1 ACE       0.0584
     44 H7          9.6991  -11.9238   -4.2562 H           1 ACE       0.0584
     45 H8         10.1208  -12.0548   -1.0149 H           1 ACE       0.0703
     46 H9         10.3441   -9.1023   -4.0273 H           1 ACE       0.0703
     47 H10         9.6409  -10.3476    0.5975 H           1 ACE       0.0736
     48 H11         9.9094   -7.4009   -2.3900 H           1 ACE       0.0736
     49 H12         8.9763   -6.8908   -8.1758 H           1 ACE       0.0265
     50 H13         9.2102   -6.4436   -6.4843 H           1 ACE       0.0265
     51 H14        11.2287   -7.8196   -6.3162 H           1 ACE       0.0265
     52 H15        11.3782   -6.7747   -7.7254 H           1 ACE       0.0265
     53 H16         7.4173   -8.1961   -6.8307 H           1 ACE       0.0265
     54 H17         8.6865   -8.6979   -5.7248 H           1 ACE       0.0265
     55 H18        12.1198   -9.0920   -8.2319 H           1 ACE       0.0277
     56 H19        10.7700   -8.5798   -9.2400 H           1 ACE       0.0277
     57 H20         8.3187   -9.5141   -8.6442 H           1 ACE       0.0277
     58 H21         8.1570  -10.5390   -7.2220 H           1 ACE       0.0277
     59 H22        10.5391   -9.8653   -5.7864 H           1 ACE       0.1839
     60 H23         9.4315  -12.5230   -7.6234 H           1 ACE       0.1891
     61 H24         8.7245  -14.0067   -9.1303 H           1 ACE       0.0828
     62 H25        10.9488  -13.3824  -11.1025 H           1 ACE       0.0551
     63 H26         9.4090  -12.5151  -11.1246 H           1 ACE       0.0551
     64 H27         8.8855  -14.9438  -13.6100 H           1 ACE       0.1814
     65 H28         9.7148  -13.5011  -13.4096 H           1 ACE       0.1814
     66 H29        11.2840  -16.5466   -8.8164 H           1 ACE       0.1815
     67 H30        10.3652  -16.1042  -10.1286 H           1 ACE       0.1815
@<TRIPOS>BOND
     1     1     2   2
     2     1     3   1
     3     4     1  am
     4     5     4   1
     5     6     5   1
     6     5     8   1
     7     6     7   2
     8    26     6  am
     9     8     9   1
    10     9    10  ar
    11     9    11  ar
    12    10    12  ar
    13    11    13  ar
    14    12    14  ar
    15    13    14  ar
    16    14    15   1
    17    15    16   1
    18    16    17  ar
    19    16    18  ar
    20    16    19  ar
    21    27    20   2
    22    22    21   1
    23    23    21   1
    24    24    22   1
    25    25    23   1
    26    28    24   1
    27    28    25   1
    28    28    26   1
    29    27    28   1
    30    27    29  am
    31    29    30   1
    32    30    31   1
    33    30    33   1
    34    31    32   2
    35    31    37  am
    36    33    34   1
    37    34    35   2
    38    34    36  am
    39     3    38   1
    40     3    39   1
    41     3    40   1
    42     4    41   1
    43     5    42   1
    44     8    43   1
    45     8    44   1
    46    10    45   1
    47    11    46   1
    48    12    47   1
    49    13    48   1
    50    21    49   1
    51    21    50   1
    52    22    51   1
    53    22    52   1
    54    23    53   1
    55    23    54   1
    56    24    55   1
    57    24    56   1
    58    25    57   1
    59    25    58   1
    60    26    59   1
    61    29    60   1
    62    30    61   1
    63    33    62   1
    64    33    63   1
    65    36    64   1
    66    36    65   1
    67    37    66   1
    68    37    67   1
@<TRIPOS>SUBSTRUCTURE
     1  ACE      1

