@<TRIPOS>MOLECULE
3s8o_ligand_014
    67    68
SMALL
GAST_HUCK
****
This file was generated by PARSER (from files_GN.cpp)

@<TRIPOS>ATOM
      1 C           9.1149   -9.3000   -1.1234 C.2         1 ACE       0.1753
      2 O           8.4982   -9.6980   -2.1037 O.2         1 ACE      -0.3972
      3 CH3        10.0934  -10.1858   -0.5258 C.3         1 ACE       0.0258
      4 N           8.9449   -8.0809   -0.6362 N.am        1 ACE      -0.2628
      5 CA          8.1673   -7.0092   -1.2057 C.3         1 ACE       0.1465
      6 C           6.7657   -7.3972   -1.3588 C.2         1 ACE       0.2045
      7 O           6.3436   -7.7887   -2.4519 O.2         1 ACE      -0.3944
      8 CB          8.8453   -6.4219   -2.4889 C.3         1 ACE       0.0400
      9 CG         10.2820   -6.0627   -2.3346 C.ar        1 ACE      -0.0004
     10 CD1        10.6891   -4.7107   -2.2078 C.ar        1 ACE      -0.0239
     11 CD2        11.2853   -7.0619   -2.3579 C.ar        1 ACE      -0.0239
     12 CE1        12.0518   -4.3729   -2.1327 C.ar        1 ACE       0.0115
     13 CE2        12.6445   -6.7238   -2.2585 C.ar        1 ACE       0.0115
     14 CZ         13.0410   -5.3760   -2.1840 C.ar        1 ACE       0.1728
     15 OH         14.3666   -5.0519   -2.0635 O.3         1 ACE      -0.2040
     16 P          15.0683   -4.7148   -3.4127 P.3         1 ACE       0.1348
     17 O1P        16.4513   -4.4345   -3.1149 O.co2       1 ACE      -0.6653
     18 O2P        15.0615   -5.8116   -4.3457 O.co2       1 ACE      -0.6653
     19 O3P        14.5235   -3.5324   -4.0372 O.co2       1 ACE      -0.6653
     20 O           4.2179   -9.5215    1.3525 O.2         1 ACE      -0.3419
     21 CD          1.6827   -7.5801   -1.2540 C.3         1 ACE      -0.0532
     22 CG          2.4490   -8.9277   -1.2297 C.3         1 ACE      -0.0516
     23 CE          2.2116   -6.5743   -0.1974 C.3         1 ACE      -0.0516
     24 CB          3.9932   -8.7156   -1.2794 C.3         1 ACE      -0.0199
     25 CH          3.7526   -6.3959   -0.2785 C.3         1 ACE      -0.0199
     26 N           5.9746   -7.4733   -0.2873 N.am        1 ACE      -0.2738
     27 C           4.3976   -8.3156    1.2013 C.2         1 ACE       0.2267
     28 CA          4.5481   -7.7438   -0.1582 C.3         1 ACE       0.1331
     29 N           4.5316   -7.5536    2.2836 N.am        1 ACE      -0.2608
     30 CA          4.3887   -7.9572    3.6664 C.3         1 ACE       0.1474
     31 C           5.0166   -9.2567    3.8983 C.2         1 ACE       0.2017
     32 O           4.4411  -10.1422    4.5175 O.2         1 ACE      -0.3945
     33 CB          2.8785   -7.8468    4.0776 C.3         1 ACE       0.0774
     34 CG          2.5339   -8.1265    5.4659 C.2         1 ACE       0.1781
     35 OD1         3.3714   -8.3747    6.3161 O.2         1 ACE      -0.3970
     36 ND2         1.2674   -8.1068    5.8319 N.am        1 ACE      -0.3007
     37 N           6.1920   -9.5506    3.3829 N.am        1 ACE      -0.2988
     38 H1         10.5777   -9.7268    0.3381 H           1 ACE       0.0467
     39 H2         10.8615  -10.4318   -1.2621 H           1 ACE       0.0467
     40 H3          9.6117  -11.1078   -0.2008 H           1 ACE       0.0467
     41 H4          9.4376   -7.8604    0.1673 H           1 ACE       0.1885
     42 H5          8.1635   -6.2083   -0.4640 H           1 ACE       0.0840
     43 H6          8.2865   -5.5324   -2.8023 H           1 ACE       0.0584
     44 H7          8.7367   -7.1456   -3.3067 H           1 ACE       0.0584
     45 H8          9.9899   -3.9667   -2.1798 H           1 ACE       0.0703
     46 H9         11.0290   -8.0459   -2.4517 H           1 ACE       0.0703
     47 H10        12.3263   -3.3905   -2.0463 H           1 ACE       0.0736
     48 H11        13.3535   -7.4636   -2.2561 H           1 ACE       0.0736
     49 H12         0.6167   -7.7645   -1.0750 H           1 ACE       0.0265
     50 H13         1.7823   -7.1341   -2.2483 H           1 ACE       0.0265
     51 H14         2.1368   -9.5297   -2.0880 H           1 ACE       0.0265
     52 H15         2.1657   -9.4724   -0.3288 H           1 ACE       0.0265
     53 H16         1.9327   -6.9222    0.8008 H           1 ACE       0.0265
     54 H17         1.7272   -5.6030   -0.3574 H           1 ACE       0.0265
     55 H18         4.2089   -8.3176   -2.2732 H           1 ACE       0.0277
     56 H19         4.4977   -9.6895   -1.2253 H           1 ACE       0.0277
     57 H20         4.0645   -5.6978    0.4979 H           1 ACE       0.0277
     58 H21         3.9832   -5.9218   -1.2369 H           1 ACE       0.0277
     59 H22         6.4220   -7.2480    0.5523 H           1 ACE       0.1839
     60 H23         4.7512   -6.6172    2.1363 H           1 ACE       0.1891
     61 H24         4.9431   -7.2272    4.2592 H           1 ACE       0.0828
     62 H25         2.2903   -8.5262    3.4433 H           1 ACE       0.0551
     63 H26         2.5377   -6.8302    3.8570 H           1 ACE       0.0551
     64 H27         1.0130   -8.3407    6.7389 H           1 ACE       0.1814
     65 H28         0.5780   -7.9007    5.1794 H           1 ACE       0.1814
     66 H29         6.5661  -10.4371    3.5044 H           1 ACE       0.1815
     67 H30         6.6900   -8.8847    2.8784 H           1 ACE       0.1815
@<TRIPOS>BOND
     1     1     2   2
     2     1     3   1
     3     4     1  am
     4     5     4   1
     5     6     5   1
     6     5     8   1
     7     6     7   2
     8    26     6  am
     9     8     9   1
    10     9    10  ar
    11     9    11  ar
    12    10    12  ar
    13    11    13  ar
    14    12    14  ar
    15    13    14  ar
    16    14    15   1
    17    15    16   1
    18    16    17  ar
    19    16    18  ar
    20    16    19  ar
    21    27    20   2
    22    22    21   1
    23    23    21   1
    24    24    22   1
    25    25    23   1
    26    28    24   1
    27    28    25   1
    28    28    26   1
    29    27    28   1
    30    27    29  am
    31    29    30   1
    32    30    31   1
    33    30    33   1
    34    31    32   2
    35    31    37  am
    36    33    34   1
    37    34    35   2
    38    34    36  am
    39     3    38   1
    40     3    39   1
    41     3    40   1
    42     4    41   1
    43     5    42   1
    44     8    43   1
    45     8    44   1
    46    10    45   1
    47    11    46   1
    48    12    47   1
    49    13    48   1
    50    21    49   1
    51    21    50   1
    52    22    51   1
    53    22    52   1
    54    23    53   1
    55    23    54   1
    56    24    55   1
    57    24    56   1
    58    25    57   1
    59    25    58   1
    60    26    59   1
    61    29    60   1
    62    30    61   1
    63    33    62   1
    64    33    63   1
    65    36    64   1
    66    36    65   1
    67    37    66   1
    68    37    67   1
@<TRIPOS>SUBSTRUCTURE
     1  ACE      1

