@<TRIPOS>MOLECULE
3s8o_ligand_080
    67    68
SMALL
GAST_HUCK
****
This file was generated by PARSER (from files_GN.cpp)

@<TRIPOS>ATOM
      1 C          15.5280  -12.4355   -1.2197 C.2         1 ACE       0.1753
      2 O          14.8778  -11.9175   -0.3111 O.2         1 ACE      -0.3972
      3 CH3        16.4213  -13.5075   -0.8950 C.3         1 ACE       0.0258
      4 N          15.5046  -11.9322   -2.4530 N.am        1 ACE      -0.2628
      5 CA         14.7384  -10.8070   -2.9016 C.3         1 ACE       0.1465
      6 C          13.5479  -11.2879   -3.6020 C.2         1 ACE       0.2045
      7 O          13.7038  -11.9245   -4.6324 O.2         1 ACE      -0.3944
      8 CB         15.6093   -9.8548   -3.7830 C.3         1 ACE       0.0400
      9 CG         16.6983   -9.0640   -3.1370 C.ar        1 ACE      -0.0004
     10 CD1        17.3110   -8.0300   -3.8971 C.ar        1 ACE      -0.0239
     11 CD2        17.1402   -9.2503   -1.8066 C.ar        1 ACE      -0.0239
     12 CE1        18.3034   -7.2070   -3.3374 C.ar        1 ACE       0.0115
     13 CE2        18.1392   -8.4359   -1.2454 C.ar        1 ACE       0.0115
     14 CZ         18.7041   -7.3893   -1.9931 C.ar        1 ACE       0.1728
     15 OH         19.6808   -6.6094   -1.4409 O.3         1 ACE      -0.2040
     16 P          19.1414   -5.5918   -0.3909 P.3         1 ACE       0.1348
     17 O1P        18.9829   -4.2592   -0.9340 O.co2       1 ACE      -0.6653
     18 O2P        17.9245   -6.0081    0.2596 O.co2       1 ACE      -0.6653
     19 O3P        20.1523   -5.4967    0.6395 O.co2       1 ACE      -0.6653
     20 O          11.1051  -12.8342   -5.1270 O.2         1 ACE      -0.3419
     21 CD          9.5117  -10.1093   -1.0785 C.3         1 ACE      -0.0532
     22 CG         10.2681   -9.1124   -1.9913 C.3         1 ACE      -0.0516
     23 CE         10.1050  -11.5339   -1.1666 C.3         1 ACE      -0.0516
     24 CB         10.3798   -9.6373   -3.4534 C.3         1 ACE      -0.0199
     25 CH         10.1873  -12.0328   -2.6369 C.3         1 ACE      -0.0199
     26 N          12.3490  -10.9734   -3.1087 N.am        1 ACE      -0.2738
     27 C          10.8797  -11.6341   -4.9757 C.2         1 ACE       0.2267
     28 CA         10.9870  -11.0851   -3.6058 C.3         1 ACE       0.1331
     29 N          10.4654  -10.9089   -6.0172 N.am        1 ACE      -0.2608
     30 CA         10.3314  -11.2776   -7.4009 C.3         1 ACE       0.1474
     31 C           9.5156  -10.2514   -8.0401 C.2         1 ACE       0.2017
     32 O           8.4484   -9.9071   -7.5444 O.2         1 ACE      -0.3945
     33 CB          9.7390  -12.7170   -7.6596 C.3         1 ACE       0.0774
     34 CG         10.6902  -13.6570   -8.2324 C.2         1 ACE       0.1781
     35 OD1        11.7954  -13.8126   -7.7365 O.2         1 ACE      -0.3970
     36 ND2        10.3755  -14.4201   -9.2585 N.am        1 ACE      -0.3007
     37 N           9.8467   -9.6872   -9.1834 N.am        1 ACE      -0.2988
     38 H1         16.2609  -14.3424   -1.5804 H           1 ACE       0.0467
     39 H2         16.2673  -13.8669    0.1273 H           1 ACE       0.0467
     40 H3         17.4540  -13.1632   -0.9748 H           1 ACE       0.0467
     41 H4         16.0512  -12.3915   -3.1135 H           1 ACE       0.1885
     42 H5         14.4062  -10.1992   -2.0559 H           1 ACE       0.0840
     43 H6         14.9320   -9.1333   -4.2502 H           1 ACE       0.0584
     44 H7         16.0575  -10.4480   -4.5828 H           1 ACE       0.0584
     45 H8         17.0194   -7.8652   -4.8639 H           1 ACE       0.0703
     46 H9         16.7404   -9.9825   -1.2047 H           1 ACE       0.0703
     47 H10        18.7283   -6.4681   -3.9018 H           1 ACE       0.0736
     48 H11        18.4390   -8.5971   -0.2847 H           1 ACE       0.0736
     49 H12         8.4595  -10.1402   -1.3700 H           1 ACE       0.0265
     50 H13         9.5629   -9.7618   -0.0420 H           1 ACE       0.0265
     51 H14        11.2676   -8.9273   -1.5866 H           1 ACE       0.0265
     52 H15         9.7360   -8.1574   -1.9933 H           1 ACE       0.0265
     53 H16         9.4796  -12.2196   -0.5895 H           1 ACE       0.0265
     54 H17        11.1022  -11.5440   -0.7186 H           1 ACE       0.0265
     55 H18        10.9819   -8.9291   -4.0299 H           1 ACE       0.0277
     56 H19         9.3701   -9.6141   -3.8671 H           1 ACE       0.0277
     57 H20         9.1624  -12.1516   -3.0055 H           1 ACE       0.0277
     58 H21        10.6400  -13.0253   -2.6181 H           1 ACE       0.0277
     59 H22        12.3957  -10.5140   -2.2578 H           1 ACE       0.1839
     60 H23        10.2428   -9.9892   -5.8127 H           1 ACE       0.1891
     61 H24        11.3352  -11.2178   -7.8248 H           1 ACE       0.0828
     62 H25         8.8718  -12.6599   -8.3234 H           1 ACE       0.0551
     63 H26         9.3630  -13.1409   -6.7251 H           1 ACE       0.0551
     64 H27        11.0130  -15.0653   -9.6020 H           1 ACE       0.1814
     65 H28         9.5003  -14.3481   -9.6698 H           1 ACE       0.1814
     66 H29         9.2566   -9.0379   -9.5928 H           1 ACE       0.1815
     67 H30        10.6722   -9.9302   -9.6280 H           1 ACE       0.1815
@<TRIPOS>BOND
     1     1     2   2
     2     1     3   1
     3     4     1  am
     4     5     4   1
     5     6     5   1
     6     5     8   1
     7     6     7   2
     8    26     6  am
     9     8     9   1
    10     9    10  ar
    11     9    11  ar
    12    10    12  ar
    13    11    13  ar
    14    12    14  ar
    15    13    14  ar
    16    14    15   1
    17    15    16   1
    18    16    17  ar
    19    16    18  ar
    20    16    19  ar
    21    27    20   2
    22    22    21   1
    23    23    21   1
    24    24    22   1
    25    25    23   1
    26    28    24   1
    27    28    25   1
    28    28    26   1
    29    27    28   1
    30    27    29  am
    31    29    30   1
    32    30    31   1
    33    30    33   1
    34    31    32   2
    35    31    37  am
    36    33    34   1
    37    34    35   2
    38    34    36  am
    39     3    38   1
    40     3    39   1
    41     3    40   1
    42     4    41   1
    43     5    42   1
    44     8    43   1
    45     8    44   1
    46    10    45   1
    47    11    46   1
    48    12    47   1
    49    13    48   1
    50    21    49   1
    51    21    50   1
    52    22    51   1
    53    22    52   1
    54    23    53   1
    55    23    54   1
    56    24    55   1
    57    24    56   1
    58    25    57   1
    59    25    58   1
    60    26    59   1
    61    29    60   1
    62    30    61   1
    63    33    62   1
    64    33    63   1
    65    36    64   1
    66    36    65   1
    67    37    66   1
    68    37    67   1
@<TRIPOS>SUBSTRUCTURE
     1  ACE      1

