@<TRIPOS>MOLECULE
3s8o_ligand_016
    67    68
SMALL
GAST_HUCK
****
This file was generated by PARSER (from files_GN.cpp)

@<TRIPOS>ATOM
      1 C           8.7369   -7.4509    0.2899 C.2         1 ACE       0.1753
      2 O           8.7436   -6.2625    0.0018 O.2         1 ACE      -0.3972
      3 CH3         9.9643   -8.2004    0.1435 C.3         1 ACE       0.0258
      4 N           7.6369   -8.0606    0.7143 N.am        1 ACE      -0.2628
      5 CA          6.3364   -7.4773    0.8960 C.3         1 ACE       0.1465
      6 C           6.3372   -6.7508    2.1650 C.2         1 ACE       0.2045
      7 O           6.4322   -5.5305    2.1337 O.2         1 ACE      -0.3944
      8 CB          5.2607   -8.6071    0.7750 C.3         1 ACE       0.0400
      9 CG          3.8372   -8.1986    0.9459 C.ar        1 ACE      -0.0004
     10 CD1         3.2428   -7.2653    0.0614 C.ar        1 ACE      -0.0239
     11 CD2         3.0211   -8.7888    1.9401 C.ar        1 ACE      -0.0239
     12 CE1         1.8772   -6.9381    0.1702 C.ar        1 ACE       0.0115
     13 CE2         1.6710   -8.4264    2.0789 C.ar        1 ACE       0.0115
     14 CZ          1.0768   -7.5287    1.1682 C.ar        1 ACE       0.1728
     15 OH         -0.2379   -7.1537    1.2756 O.3         1 ACE      -0.2040
     16 P          -1.2611   -8.1957    0.7222 P.3         1 ACE       0.1348
     17 O1P        -0.9800   -8.6371   -0.6220 O.co2       1 ACE      -0.6653
     18 O2P        -1.3736   -9.3309    1.5948 O.co2       1 ACE      -0.6653
     19 O3P        -2.5547   -7.5630    0.6983 O.co2       1 ACE      -0.6653
     20 O           7.9924   -5.2928    5.3808 O.2         1 ACE      -0.3419
     21 CD          3.6206   -7.5781    5.6860 C.3         1 ACE      -0.0532
     22 CG          4.7189   -8.6667    5.5560 C.3         1 ACE      -0.0516
     23 CE          3.8903   -6.3592    4.7689 C.3         1 ACE      -0.0516
     24 CB          6.1622   -8.0856    5.6632 C.3         1 ACE      -0.0199
     25 CH          5.3296   -5.8179    4.9698 C.3         1 ACE      -0.0199
     26 N           6.3480   -7.4123    3.3201 N.am        1 ACE      -0.2738
     27 C           7.8158   -6.4079    4.8992 C.2         1 ACE       0.2267
     28 CA          6.4413   -6.8980    4.6733 C.3         1 ACE       0.1331
     29 N           8.8730   -7.1691    4.5968 N.am        1 ACE      -0.2608
     30 CA         10.2651   -6.8329    4.8078 C.3         1 ACE       0.1474
     31 C          10.8332   -6.1867    3.6270 C.2         1 ACE       0.2017
     32 O          11.8882   -6.5549    3.1289 O.2         1 ACE      -0.3945
     33 CB         11.0473   -8.0755    5.3632 C.3         1 ACE       0.0774
     34 CG         11.4751   -9.1230    4.4426 C.2         1 ACE       0.1781
     35 OD1        11.0820   -9.1778    3.2850 O.2         1 ACE      -0.3970
     36 ND2        12.3595  -10.0175    4.8331 N.am        1 ACE      -0.3007
     37 N          10.2791   -5.1129    3.1056 N.am        1 ACE      -0.2988
     38 H1          9.8519   -9.2309    0.4882 H           1 ACE       0.0467
     39 H2         10.7577   -7.7285    0.7245 H           1 ACE       0.0467
     40 H3         10.2583   -8.2175   -0.9063 H           1 ACE       0.0467
     41 H4          7.7171   -9.0073    0.8996 H           1 ACE       0.1885
     42 H5          6.1559   -6.7834    0.0676 H           1 ACE       0.0840
     43 H6          5.5102   -9.3989    1.4855 H           1 ACE       0.0584
     44 H7          5.3468   -9.0585   -0.2183 H           1 ACE       0.0584
     45 H8          3.7925   -6.8313   -0.6829 H           1 ACE       0.0703
     46 H9          3.4064   -9.4908    2.5725 H           1 ACE       0.0703
     47 H10         1.4638   -6.2674   -0.4833 H           1 ACE       0.0736
     48 H11         1.1129   -8.8365    2.8302 H           1 ACE       0.0736
     49 H12         3.5741   -7.2384    6.7247 H           1 ACE       0.0265
     50 H13         2.6514   -8.0171    5.4329 H           1 ACE       0.0265
     51 H14         4.6110   -9.1775    4.5997 H           1 ACE       0.0265
     52 H15         4.5745   -9.4135    6.3423 H           1 ACE       0.0265
     53 H16         3.1662   -5.5723    4.9961 H           1 ACE       0.0265
     54 H17         3.7486   -6.6424    3.7244 H           1 ACE       0.0265
     55 H18         6.8715   -8.8973    5.4823 H           1 ACE       0.0277
     56 H19         6.3115   -7.7483    6.6955 H           1 ACE       0.0277
     57 H20         5.4190   -5.4709    6.0045 H           1 ACE       0.0277
     58 H21         5.4651   -4.9372    4.3418 H           1 ACE       0.0277
     59 H22         6.3123   -8.3782    3.2448 H           1 ACE       0.1839
     60 H23         8.6903   -8.0321    4.1915 H           1 ACE       0.1891
     61 H24        10.3334   -6.0822    5.6035 H           1 ACE       0.0828
     62 H25        10.4323   -8.5518    6.1300 H           1 ACE       0.0551
     63 H26        11.9449   -7.6911    5.8640 H           1 ACE       0.0551
     64 H27        12.7004  -10.6809    4.2103 H           1 ACE       0.1814
     65 H28        12.7038   -9.9980    5.7414 H           1 ACE       0.1814
     66 H29        10.6799   -4.6747    2.3378 H           1 ACE       0.1815
     67 H30         9.4674   -4.7493    3.4905 H           1 ACE       0.1815
@<TRIPOS>BOND
     1     1     2   2
     2     1     3   1
     3     4     1  am
     4     5     4   1
     5     6     5   1
     6     5     8   1
     7     6     7   2
     8    26     6  am
     9     8     9   1
    10     9    10  ar
    11     9    11  ar
    12    10    12  ar
    13    11    13  ar
    14    12    14  ar
    15    13    14  ar
    16    14    15   1
    17    15    16   1
    18    16    17  ar
    19    16    18  ar
    20    16    19  ar
    21    27    20   2
    22    22    21   1
    23    23    21   1
    24    24    22   1
    25    25    23   1
    26    28    24   1
    27    28    25   1
    28    28    26   1
    29    27    28   1
    30    27    29  am
    31    29    30   1
    32    30    31   1
    33    30    33   1
    34    31    32   2
    35    31    37  am
    36    33    34   1
    37    34    35   2
    38    34    36  am
    39     3    38   1
    40     3    39   1
    41     3    40   1
    42     4    41   1
    43     5    42   1
    44     8    43   1
    45     8    44   1
    46    10    45   1
    47    11    46   1
    48    12    47   1
    49    13    48   1
    50    21    49   1
    51    21    50   1
    52    22    51   1
    53    22    52   1
    54    23    53   1
    55    23    54   1
    56    24    55   1
    57    24    56   1
    58    25    57   1
    59    25    58   1
    60    26    59   1
    61    29    60   1
    62    30    61   1
    63    33    62   1
    64    33    63   1
    65    36    64   1
    66    36    65   1
    67    37    66   1
    68    37    67   1
@<TRIPOS>SUBSTRUCTURE
     1  ACE      1

