@<TRIPOS>MOLECULE
3s8o_ligand_008
    67    68
SMALL
GAST_HUCK
****
This file was generated by PARSER (from files_GN.cpp)

@<TRIPOS>ATOM
      1 C           4.4987   -8.4757    1.5020 C.2         1 ACE       0.1753
      2 O           3.4441   -7.9882    1.1117 O.2         1 ACE      -0.3972
      3 CH3         4.6259   -8.8132    2.9027 C.3         1 ACE       0.0258
      4 N           5.5165   -8.7122    0.6804 N.am        1 ACE      -0.2628
      5 CA          5.5986   -8.4399   -0.7365 C.3         1 ACE       0.1465
      6 C           6.9019   -8.8896   -1.2295 C.2         1 ACE       0.2045
      7 O           6.9745   -9.4214   -2.3298 O.2         1 ACE      -0.3944
      8 CB          5.3935   -6.9325   -1.1166 C.3         1 ACE       0.0400
      9 CG          5.2562   -6.7433   -2.5930 C.ar        1 ACE      -0.0004
     10 CD1         6.3548   -6.3370   -3.3846 C.ar        1 ACE      -0.0239
     11 CD2         4.0261   -7.0315   -3.2233 C.ar        1 ACE      -0.0239
     12 CE1         6.2253   -6.2385   -4.7803 C.ar        1 ACE       0.0115
     13 CE2         3.8955   -6.9143   -4.6166 C.ar        1 ACE       0.0115
     14 CZ          5.0032   -6.5523   -5.4068 C.ar        1 ACE       0.1728
     15 OH          4.8704   -6.3899   -6.7613 O.3         1 ACE      -0.2040
     16 P           5.0869   -7.6987   -7.5842 P.3         1 ACE       0.1348
     17 O1P         4.0682   -8.6902   -7.3267 O.co2       1 ACE      -0.6653
     18 O2P         4.9600   -7.3463   -8.9754 O.co2       1 ACE      -0.6653
     19 O3P         6.3976   -8.2712   -7.4054 O.co2       1 ACE      -0.6653
     20 O          10.8731   -7.5790    0.4954 O.2         1 ACE      -0.3419
     21 CD         11.5231   -9.8857   -2.7357 C.3         1 ACE      -0.0532
     22 CG         11.3106   -8.3685   -2.5044 C.3         1 ACE      -0.0516
     23 CE         11.1200  -10.7191   -1.4905 C.3         1 ACE      -0.0516
     24 CB          9.8571   -8.0638   -2.0466 C.3         1 ACE      -0.0199
     25 CH          9.6576  -10.4209   -1.0731 C.3         1 ACE      -0.0199
     26 N           7.9967   -8.6035   -0.5310 N.am        1 ACE      -0.2738
     27 C          10.0669   -8.5013    0.4701 C.2         1 ACE       0.2267
     28 CA          9.3921   -8.8914   -0.7885 C.3         1 ACE       0.1331
     29 N           9.6937   -9.0861    1.6123 N.am        1 ACE      -0.2608
     30 CA         10.1099   -8.8731    2.9736 C.3         1 ACE       0.1474
     31 C           9.1000   -8.0565    3.6419 C.2         1 ACE       0.2017
     32 O           8.4132   -8.5167    4.5390 O.2         1 ACE      -0.3945
     33 CB         11.5754   -8.3703    3.1928 C.3         1 ACE       0.0774
     34 CG         12.0660   -8.6344    4.5356 C.2         1 ACE       0.1781
     35 OD1        11.7880   -7.8733    5.4518 O.2         1 ACE      -0.3970
     36 ND2        12.7421   -9.7286    4.8134 N.am        1 ACE      -0.3007
     37 N           8.8500   -6.8196    3.2602 N.am        1 ACE      -0.2988
     38 H1          5.5988   -9.2758    3.1341 H           1 ACE       0.0467
     39 H2          3.8308   -9.5185    3.1807 H           1 ACE       0.0467
     40 H3          4.5263   -7.9008    3.5027 H           1 ACE       0.0467
     41 H4          6.2780   -9.1766    1.0691 H           1 ACE       0.1885
     42 H5          4.8139   -9.0416   -1.2099 H           1 ACE       0.0840
     43 H6          6.2291   -6.3363   -0.7214 H           1 ACE       0.0584
     44 H7          4.4914   -6.5396   -0.6401 H           1 ACE       0.0584
     45 H8          7.2546   -6.1266   -2.9465 H           1 ACE       0.0703
     46 H9          3.2153   -7.3203   -2.6706 H           1 ACE       0.0703
     47 H10         7.0281   -5.9479   -5.3373 H           1 ACE       0.0736
     48 H11         2.9956   -7.1112   -5.0544 H           1 ACE       0.0736
     49 H12        12.5720  -10.0721   -2.9727 H           1 ACE       0.0265
     50 H13        10.9228  -10.2060   -3.5931 H           1 ACE       0.0265
     51 H14        11.5119   -7.8292   -3.4348 H           1 ACE       0.0265
     52 H15        12.0268   -8.0154   -1.7579 H           1 ACE       0.0265
     53 H16        11.7883  -10.4901   -0.6603 H           1 ACE       0.0265
     54 H17        11.2278  -11.7834   -1.7183 H           1 ACE       0.0265
     55 H18         9.1996   -8.2844   -2.8925 H           1 ACE       0.0277
     56 H19         9.7555   -6.9925   -1.8456 H           1 ACE       0.0277
     57 H20         9.4088  -11.0308   -0.2020 H           1 ACE       0.0277
     58 H21         9.0175  -10.7705   -1.8850 H           1 ACE       0.0277
     59 H22         7.8348   -8.1125    0.2947 H           1 ACE       0.1839
     60 H23         8.9851   -9.7425    1.5228 H           1 ACE       0.1891
     61 H24        10.0718   -9.8779    3.4123 H           1 ACE       0.0828
     62 H25        11.6513   -7.3003    2.9863 H           1 ACE       0.0551
     63 H26        12.2396   -8.8772    2.4800 H           1 ACE       0.0551
     64 H27        13.0409   -9.8929    5.7213 H           1 ACE       0.1814
     65 H28        12.9348  -10.3858    4.1182 H           1 ACE       0.1814
     66 H29         8.1585   -6.3081    3.7099 H           1 ACE       0.1815
     67 H30         9.3550   -6.4201    2.5338 H           1 ACE       0.1815
@<TRIPOS>BOND
     1     1     2   2
     2     1     3   1
     3     4     1  am
     4     5     4   1
     5     6     5   1
     6     5     8   1
     7     6     7   2
     8    26     6  am
     9     8     9   1
    10     9    10  ar
    11     9    11  ar
    12    10    12  ar
    13    11    13  ar
    14    12    14  ar
    15    13    14  ar
    16    14    15   1
    17    15    16   1
    18    16    17  ar
    19    16    18  ar
    20    16    19  ar
    21    27    20   2
    22    22    21   1
    23    23    21   1
    24    24    22   1
    25    25    23   1
    26    28    24   1
    27    28    25   1
    28    28    26   1
    29    27    28   1
    30    27    29  am
    31    29    30   1
    32    30    31   1
    33    30    33   1
    34    31    32   2
    35    31    37  am
    36    33    34   1
    37    34    35   2
    38    34    36  am
    39     3    38   1
    40     3    39   1
    41     3    40   1
    42     4    41   1
    43     5    42   1
    44     8    43   1
    45     8    44   1
    46    10    45   1
    47    11    46   1
    48    12    47   1
    49    13    48   1
    50    21    49   1
    51    21    50   1
    52    22    51   1
    53    22    52   1
    54    23    53   1
    55    23    54   1
    56    24    55   1
    57    24    56   1
    58    25    57   1
    59    25    58   1
    60    26    59   1
    61    29    60   1
    62    30    61   1
    63    33    62   1
    64    33    63   1
    65    36    64   1
    66    36    65   1
    67    37    66   1
    68    37    67   1
@<TRIPOS>SUBSTRUCTURE
     1  ACE      1

