@<TRIPOS>MOLECULE
3s8o_ligand_076
    67    68
SMALL
GAST_HUCK
****
This file was generated by PARSER (from files_GN.cpp)

@<TRIPOS>ATOM
      1 C          15.3997   -7.9085   -6.7749 C.2         1 ACE       0.1753
      2 O          15.5260   -6.7271   -6.4774 O.2         1 ACE      -0.3972
      3 CH3        16.5964   -8.6694   -7.0288 C.3         1 ACE       0.0258
      4 N          14.2125   -8.4982   -6.8489 N.am        1 ACE      -0.2628
      5 CA         12.9326   -7.8868   -6.6190 C.3         1 ACE       0.1465
      6 C          12.4820   -8.2992   -5.2909 C.2         1 ACE       0.2045
      7 O          12.3067   -7.4263   -4.4531 O.2         1 ACE      -0.3944
      8 CB         11.9397   -8.2554   -7.7707 C.3         1 ACE       0.0400
      9 CG         10.8024   -7.2980   -7.9181 C.ar        1 ACE      -0.0004
     10 CD1         9.7807   -7.2213   -6.9437 C.ar        1 ACE      -0.0239
     11 CD2        10.7156   -6.4432   -9.0461 C.ar        1 ACE      -0.0239
     12 CE1         8.7275   -6.2953   -7.0678 C.ar        1 ACE       0.0115
     13 CE2         9.6608   -5.5248   -9.1764 C.ar        1 ACE       0.0115
     14 CZ          8.6744   -5.4195   -8.1752 C.ar        1 ACE       0.1728
     15 OH          7.6317   -4.5440   -8.3189 O.3         1 ACE      -0.2040
     16 P           7.9174   -3.1185   -7.7569 P.3         1 ACE       0.1348
     17 O1P         8.1066   -3.1186   -6.3290 O.co2       1 ACE      -0.6653
     18 O2P         9.0279   -2.4646   -8.4045 O.co2       1 ACE      -0.6653
     19 O3P         6.7529   -2.3099   -8.0100 O.co2       1 ACE      -0.6653
     20 O          12.9577  -12.4107   -3.7874 O.2         1 ACE      -0.3419
     21 CD          9.7533  -10.9284   -1.7197 C.3         1 ACE      -0.0532
     22 CG          9.9449  -11.8193   -2.9706 C.3         1 ACE      -0.0516
     23 CE         11.0653  -10.2158   -1.3283 C.3         1 ACE      -0.0516
     24 CB         10.5892  -11.0425   -4.1632 C.3         1 ACE      -0.0199
     25 CH         11.6321   -9.4162   -2.5334 C.3         1 ACE      -0.0199
     26 N          12.3213   -9.5944   -5.0135 N.am        1 ACE      -0.2738
     27 C          13.0629  -11.2123   -3.5502 C.2         1 ACE       0.2267
     28 CA         11.9306  -10.2991   -3.8034 C.3         1 ACE       0.1331
     29 N          14.2369  -10.7411   -3.1341 N.am        1 ACE      -0.2608
     30 CA         15.4245  -11.5044   -2.8361 C.3         1 ACE       0.1474
     31 C          15.3579  -12.1474   -1.5208 C.2         1 ACE       0.2017
     32 O          14.2839  -12.4449   -1.0162 O.2         1 ACE      -0.3945
     33 CB         16.6839  -10.6061   -3.0548 C.3         1 ACE       0.0774
     34 CG         16.9040   -9.5973   -2.0330 C.2         1 ACE       0.1781
     35 OD1        16.1912   -8.6064   -1.9797 O.2         1 ACE      -0.3970
     36 ND2        17.8832   -9.7081   -1.1621 N.am        1 ACE      -0.3007
     37 N          16.4262  -12.5906   -0.8922 N.am        1 ACE      -0.2988
     38 H1         16.3677   -9.7085   -7.2729 H           1 ACE       0.0467
     39 H2         17.2344   -8.6549   -6.1439 H           1 ACE       0.0467
     40 H3         17.1387   -8.2280   -7.8669 H           1 ACE       0.0467
     41 H4         14.2080   -9.4484   -7.0500 H           1 ACE       0.1885
     42 H5         13.0501   -6.7950   -6.6517 H           1 ACE       0.0840
     43 H6         11.5343   -9.2614   -7.6304 H           1 ACE       0.0584
     44 H7         12.5092   -8.2866   -8.7055 H           1 ACE       0.0584
     45 H8          9.7919   -7.8453   -6.1334 H           1 ACE       0.0703
     46 H9         11.4248   -6.4835   -9.7816 H           1 ACE       0.0703
     47 H10         8.0027   -6.2508   -6.3491 H           1 ACE       0.0736
     48 H11         9.6192   -4.9152   -9.9978 H           1 ACE       0.0736
     49 H12         9.4091  -11.5385   -0.8781 H           1 ACE       0.0265
     50 H13         8.9813  -10.1819   -1.9262 H           1 ACE       0.0265
     51 H14         8.9716  -12.2127   -3.2695 H           1 ACE       0.0265
     52 H15        10.5725  -12.6730   -2.7064 H           1 ACE       0.0265
     53 H16        11.7953  -10.9516   -0.9827 H           1 ACE       0.0265
     54 H17        10.8657   -9.5260   -0.5058 H           1 ACE       0.0265
     55 H18         9.8665  -10.3012   -4.5166 H           1 ACE       0.0277
     56 H19        10.7419  -11.7474   -4.9876 H           1 ACE       0.0277
     57 H20        12.5280   -8.8880   -2.2041 H           1 ACE       0.0277
     58 H21        10.8838   -8.6599   -2.7878 H           1 ACE       0.0277
     59 H22        12.5166  -10.1810   -5.7647 H           1 ACE       0.1839
     60 H23        14.2973   -9.7823   -3.0046 H           1 ACE       0.1891
     61 H24        15.5056  -12.3124   -3.5714 H           1 ACE       0.0828
     62 H25        16.6108  -10.1013   -4.0210 H           1 ACE       0.0551
     63 H26        17.5574  -11.2603   -3.1226 H           1 ACE       0.0551
     64 H27        18.0109   -9.0274   -0.4824 H           1 ACE       0.1814
     65 H28        18.4841  -10.4713   -1.1991 H           1 ACE       0.1814
     66 H29        16.3347  -13.0662   -0.0503 H           1 ACE       0.1815
     67 H30        17.3131  -12.4320   -1.2534 H           1 ACE       0.1815
@<TRIPOS>BOND
     1     1     2   2
     2     1     3   1
     3     4     1  am
     4     5     4   1
     5     6     5   1
     6     5     8   1
     7     6     7   2
     8    26     6  am
     9     8     9   1
    10     9    10  ar
    11     9    11  ar
    12    10    12  ar
    13    11    13  ar
    14    12    14  ar
    15    13    14  ar
    16    14    15   1
    17    15    16   1
    18    16    17  ar
    19    16    18  ar
    20    16    19  ar
    21    27    20   2
    22    22    21   1
    23    23    21   1
    24    24    22   1
    25    25    23   1
    26    28    24   1
    27    28    25   1
    28    28    26   1
    29    27    28   1
    30    27    29  am
    31    29    30   1
    32    30    31   1
    33    30    33   1
    34    31    32   2
    35    31    37  am
    36    33    34   1
    37    34    35   2
    38    34    36  am
    39     3    38   1
    40     3    39   1
    41     3    40   1
    42     4    41   1
    43     5    42   1
    44     8    43   1
    45     8    44   1
    46    10    45   1
    47    11    46   1
    48    12    47   1
    49    13    48   1
    50    21    49   1
    51    21    50   1
    52    22    51   1
    53    22    52   1
    54    23    53   1
    55    23    54   1
    56    24    55   1
    57    24    56   1
    58    25    57   1
    59    25    58   1
    60    26    59   1
    61    29    60   1
    62    30    61   1
    63    33    62   1
    64    33    63   1
    65    36    64   1
    66    36    65   1
    67    37    66   1
    68    37    67   1
@<TRIPOS>SUBSTRUCTURE
     1  ACE      1

