@<TRIPOS>MOLECULE
3s8o_ligand_087
    67    68
SMALL
GAST_HUCK
****
This file was generated by PARSER (from files_GN.cpp)

@<TRIPOS>ATOM
      1 C           4.5883   -7.3338    6.2811 C.2         1 ACE       0.1753
      2 O           4.2517   -8.4911    6.4855 O.2         1 ACE      -0.3972
      3 CH3         4.6732   -6.4495    7.4207 C.3         1 ACE       0.0258
      4 N           4.9147   -6.8876    5.0724 N.am        1 ACE      -0.2628
      5 CA          4.9412   -7.5833    3.8113 C.3         1 ACE       0.1465
      6 C           3.5979   -7.8754    3.2960 C.2         1 ACE       0.2045
      7 O           2.8346   -8.5331    3.9860 O.2         1 ACE      -0.3944
      8 CB          5.8667   -8.8409    3.7701 C.3         1 ACE       0.0400
      9 CG          7.3171   -8.5049    3.8929 C.ar        1 ACE      -0.0004
     10 CD1         7.9834   -8.5549    5.1366 C.ar        1 ACE      -0.0239
     11 CD2         8.0563   -8.1091    2.7522 C.ar        1 ACE      -0.0239
     12 CE1         9.3473   -8.2374    5.2281 C.ar        1 ACE       0.0115
     13 CE2         9.4313   -7.8161    2.8406 C.ar        1 ACE       0.0115
     14 CZ         10.0905   -7.8958    4.0800 C.ar        1 ACE       0.1728
     15 OH         11.3982   -7.5246    4.2186 O.3         1 ACE      -0.2040
     16 P          12.4151   -8.7016    4.2245 P.3         1 ACE       0.1348
     17 O1P        12.5891   -9.2134    2.8832 O.co2       1 ACE      -0.6653
     18 O2P        13.7014   -8.1950    4.6363 O.co2       1 ACE      -0.6653
     19 O3P        12.0872   -9.8053    5.0858 O.co2       1 ACE      -0.6653
     20 O           1.8611   -6.0298   -0.4368 O.2         1 ACE      -0.3419
     21 CD         -0.8733   -8.5149    1.1886 C.3         1 ACE      -0.0532
     22 CG         -0.5095   -7.0212    1.3820 C.3         1 ACE      -0.0516
     23 CE          0.2426   -9.2939    0.4470 C.3         1 ACE      -0.0516
     24 CB          0.8888   -6.8402    2.0416 C.3         1 ACE      -0.0199
     25 CH          1.6117   -9.1230    1.1624 C.3         1 ACE      -0.0199
     26 N           3.2729   -7.4753    2.0683 N.am        1 ACE      -0.2738
     27 C           2.3852   -7.0563   -0.0213 C.2         1 ACE       0.2267
     28 CA          2.0473   -7.6161    1.3075 C.3         1 ACE       0.1331
     29 N           3.3104   -7.6553   -0.7631 N.am        1 ACE      -0.2608
     30 CA          3.8246   -7.3027   -2.0607 C.3         1 ACE       0.1474
     31 C           3.3876   -8.2605   -3.0703 C.2         1 ACE       0.2017
     32 O           3.2338   -7.8993   -4.2295 O.2         1 ACE      -0.3945
     33 CB          5.3800   -7.1664   -2.0287 C.3         1 ACE       0.0774
     34 CG          6.0962   -8.3267   -1.5135 C.2         1 ACE       0.1781
     35 OD1         6.7310   -9.0619   -2.2548 O.2         1 ACE      -0.3970
     36 ND2         6.1390   -8.5686   -0.2262 N.am        1 ACE      -0.3007
     37 N           3.2060   -9.5421   -2.8207 N.am        1 ACE      -0.2988
     38 H1          4.7923   -5.4071    7.1215 H           1 ACE       0.0467
     39 H2          5.5283   -6.7276    8.0354 H           1 ACE       0.0467
     40 H3          3.7693   -6.5277    8.0242 H           1 ACE       0.0467
     41 H4          5.1823   -5.9544    5.0331 H           1 ACE       0.1885
     42 H5          5.3985   -6.8599    3.1266 H           1 ACE       0.0840
     43 H6          5.7225   -9.3720    2.8229 H           1 ACE       0.0584
     44 H7          5.5741   -9.5522    4.5453 H           1 ACE       0.0584
     45 H8          7.4752   -8.8069    5.9830 H           1 ACE       0.0703
     46 H9          7.5926   -8.0213    1.8486 H           1 ACE       0.0703
     47 H10         9.8176   -8.2621    6.1345 H           1 ACE       0.0736
     48 H11         9.9378   -7.5343    2.0000 H           1 ACE       0.0736
     49 H12        -1.8055   -8.5897    0.6191 H           1 ACE       0.0265
     50 H13        -1.0441   -8.9746    2.1664 H           1 ACE       0.0265
     51 H14        -1.2669   -6.5478    2.0139 H           1 ACE       0.0265
     52 H15        -0.5346   -6.5162    0.4135 H           1 ACE       0.0265
     53 H16         0.3163   -8.9372   -0.5830 H           1 ACE       0.0265
     54 H17        -0.0178  -10.3555    0.4153 H           1 ACE       0.0265
     55 H18         0.8048   -7.1920    3.0723 H           1 ACE       0.0277
     56 H19         1.1238   -5.7738    2.0907 H           1 ACE       0.0277
     57 H20         2.3659   -9.7062    0.6297 H           1 ACE       0.0277
     58 H21         1.5154   -9.5724    2.1488 H           1 ACE       0.0277
     59 H22         3.9854   -7.0046    1.6042 H           1 ACE       0.1839
     60 H23         3.6914   -8.4588   -0.3805 H           1 ACE       0.1891
     61 H24         3.4364   -6.3189   -2.3529 H           1 ACE       0.0828
     62 H25         5.6450   -6.3047   -1.4101 H           1 ACE       0.0551
     63 H26         5.7372   -6.9400   -3.0378 H           1 ACE       0.0551
     64 H27         6.6406   -9.3264    0.1123 H           1 ACE       0.1814
     65 H28         5.6994   -7.9693    0.3985 H           1 ACE       0.1814
     66 H29         2.9335  -10.1417   -3.5337 H           1 ACE       0.1815
     67 H30         3.3300   -9.8909   -1.9242 H           1 ACE       0.1815
@<TRIPOS>BOND
     1     1     2   2
     2     1     3   1
     3     4     1  am
     4     5     4   1
     5     6     5   1
     6     5     8   1
     7     6     7   2
     8    26     6  am
     9     8     9   1
    10     9    10  ar
    11     9    11  ar
    12    10    12  ar
    13    11    13  ar
    14    12    14  ar
    15    13    14  ar
    16    14    15   1
    17    15    16   1
    18    16    17  ar
    19    16    18  ar
    20    16    19  ar
    21    27    20   2
    22    22    21   1
    23    23    21   1
    24    24    22   1
    25    25    23   1
    26    28    24   1
    27    28    25   1
    28    28    26   1
    29    27    28   1
    30    27    29  am
    31    29    30   1
    32    30    31   1
    33    30    33   1
    34    31    32   2
    35    31    37  am
    36    33    34   1
    37    34    35   2
    38    34    36  am
    39     3    38   1
    40     3    39   1
    41     3    40   1
    42     4    41   1
    43     5    42   1
    44     8    43   1
    45     8    44   1
    46    10    45   1
    47    11    46   1
    48    12    47   1
    49    13    48   1
    50    21    49   1
    51    21    50   1
    52    22    51   1
    53    22    52   1
    54    23    53   1
    55    23    54   1
    56    24    55   1
    57    24    56   1
    58    25    57   1
    59    25    58   1
    60    26    59   1
    61    29    60   1
    62    30    61   1
    63    33    62   1
    64    33    63   1
    65    36    64   1
    66    36    65   1
    67    37    66   1
    68    37    67   1
@<TRIPOS>SUBSTRUCTURE
     1  ACE      1

