@<TRIPOS>MOLECULE
3su2_ligand_003
    95   100
SMALL
GAST_HUCK
****
This file was generated by PARSER (from files_GN.cpp)

@<TRIPOS>ATOM
      1 C1        -11.9988   -6.3007   17.4660 C.3         1 TSV      -0.0069
      2 F1        -11.0306  -17.3044    9.4169 F           1 TSV      -0.1836
      3 N1        -18.4774   -8.4709   13.8770 N.am        1 TSV      -0.2412
      4 O1        -20.5991   -9.3344   14.1235 O.3         1 TSV      -0.2580
      5 S1         -8.7241   -6.1922   13.9141 S.o2        1 TSV       0.0645
      6 C2        -12.1698   -6.4918   15.9441 C.3         1 TSV       0.1453
      7 N2        -12.6814   -7.7788   15.5650 N.am        1 TSV      -0.2722
      8 O2        -19.5806   -9.3848   11.9881 O.2         1 TSV      -0.3774
      9 C3        -13.2124   -5.6811   16.7562 C.3         1 TSV       0.0105
     10 N3        -10.1039   -6.7115   14.7415 N.am        1 TSV      -0.1550
     11 O3        -16.0628   -8.1525   15.1240 O.2         1 TSV      -0.3942
     12 C4        -11.0592   -5.9148   15.1903 C.2         1 TSV       0.2463
     13 N4        -12.8229  -13.4649   10.2089 N.am        1 TSV      -0.2075
     14 O4         -7.8893   -7.4944   13.5377 O.2         1 TSV      -0.1503
     15 C5        -13.3056   -4.2381   16.6414 C.2         1 TSV      -0.0942
     16 N5        -15.0620   -9.1214   13.4119 N.am        1 TSV      -0.2469
     17 O5        -11.4250  -12.1398   11.5611 O.2         1 TSV      -0.3166
     18 C6        -22.7395   -8.8930   13.0006 C.3         1 TSV      -0.0320
     19 O6         -7.8054   -5.3987   14.9376 O.2         1 TSV      -0.1503
     20 C7        -21.7849  -11.2718   13.1573 C.3         1 TSV      -0.0320
     21 O7        -12.9724   -7.3430   13.4135 O.2         1 TSV      -0.3947
     22 C8        -22.5747  -10.0678   15.2595 C.3         1 TSV      -0.0320
     23 O8        -13.6109  -11.4220   11.1012 O.3         1 TSV      -0.2338
     24 C9        -21.9062   -9.8897   13.8628 C.3         1 TSV       0.0905
     25 O9        -11.0420   -4.7161   14.9321 O.2         1 TSV      -0.3402
     26 C10       -14.1639   -3.5893   15.8303 C.2         1 TSV      -0.0985
     27 C11       -13.1153   -8.1080   14.3565 C.2         1 TSV       0.2014
     28 C12       -13.9032  -13.7243    9.4303 C.2         1 TSV       0.0391
     29 C13       -15.1579   -4.1822   14.9449 C.3         1 TSV      -0.0365
     30 C14       -14.1432  -16.9874    7.5495 C.ar        1 TSV      -0.0639
     31 C15       -13.8429   -9.3593   14.1482 C.3         1 TSV       0.1363
     32 C16       -14.5628  -15.7001    7.9508 C.ar        1 TSV      -0.0660
     33 C17       -12.9440  -17.5371    8.0543 C.ar        1 TSV      -0.0284
     34 C18       -14.9487   -3.7678   13.4642 C.3         1 TSV      -0.0464
     35 C19       -16.0779   -4.2287   12.4965 C.3         1 TSV      -0.0513
     36 C20       -19.5364   -9.0896   13.3088 C.2         1 TSV       0.3223
     37 C21       -12.1364  -16.7964    8.9465 C.ar        1 TSV       0.1323
     38 C22       -16.2209   -5.7710   12.3164 C.3         1 TSV      -0.0487
     39 C23        -8.9809   -5.2127   12.4109 C.3         1 TSV       0.1004
     40 C24       -13.7549  -14.9772    8.8480 C.ar        1 TSV      -0.0325
     41 C25       -17.3481   -6.4261   13.1687 C.3         1 TSV      -0.0124
     42 C26       -12.5553  -15.5033    9.3193 C.ar        1 TSV       0.0028
     43 C27       -13.0533  -10.3811   13.3034 C.3         1 TSV       0.0206
     44 C28       -17.2993   -7.9896   13.2132 C.3         1 TSV       0.1330
     45 C29        -8.9615   -5.9102   11.0402 C.3         1 TSV      -0.0268
     46 C30       -13.5760  -10.2035   11.8655 C.3         1 TSV       0.1158
     47 C31       -11.9907  -14.5351   10.1414 C.2         1 TSV       0.0402
     48 C32       -10.2912   -5.4371   11.6371 C.3         1 TSV      -0.0268
     49 C33       -16.1153   -8.4678   13.9389 C.2         1 TSV       0.2064
     50 C34       -14.9903   -9.6159   12.0643 C.3         1 TSV       0.0677
     51 C35       -12.6151  -12.3415   10.9396 C.2         1 TSV       0.4317
     52 H1        -11.2365   -5.5958   17.8145 H           1 TSV       0.0300
     53 H2        -12.2221   -7.1666   18.0963 H           1 TSV       0.0300
     54 H3        -18.5557   -8.2646   14.8235 H           1 TSV       0.1899
     55 H4        -12.8051   -8.4306   16.2757 H           1 TSV       0.1841
     56 H5        -14.1379   -6.2003   17.0317 H           1 TSV       0.0435
     57 H6        -10.1781   -7.6654   14.9116 H           1 TSV       0.2148
     58 H7        -12.6972   -3.6860   17.2018 H           1 TSV       0.0452
     59 H8        -23.7623   -9.2528   12.8625 H           1 TSV       0.0260
     60 H9        -22.2877   -8.7612   12.0145 H           1 TSV       0.0260
     61 H10       -22.7773   -7.9154   13.4875 H           1 TSV       0.0260
     62 H11       -22.7675  -11.7414   13.0577 H           1 TSV       0.0260
     63 H12       -21.1377  -11.9376   13.7349 H           1 TSV       0.0260
     64 H13       -21.3543  -11.1544   12.1599 H           1 TSV       0.0260
     65 H14       -23.5829  -10.4772   15.1594 H           1 TSV       0.0260
     66 H15       -22.6401   -9.1058   15.7742 H           1 TSV       0.0260
     67 H16       -21.9847  -10.7461   15.8808 H           1 TSV       0.0260
     68 H17       -14.1301   -2.5959   15.8469 H           1 TSV       0.0450
     69 H18       -14.6981  -13.1010    9.2724 H           1 TSV       0.0373
     70 H19       -16.1424   -3.8374   15.2703 H           1 TSV       0.0388
     71 H20       -15.1508   -5.2702   15.0061 H           1 TSV       0.0388
     72 H21       -14.7135  -17.5259    6.8938 H           1 TSV       0.0607
     73 H22       -14.0714   -9.8281   15.1138 H           1 TSV       0.0803
     74 H23       -15.4316  -15.3001    7.5902 H           1 TSV       0.0580
     75 H24       -12.6605  -18.4773    7.7688 H           1 TSV       0.0604
     76 H25       -13.9917   -4.1645   13.1121 H           1 TSV       0.0285
     77 H26       -14.8920   -2.6763   13.4074 H           1 TSV       0.0285
     78 H27       -15.8553   -3.7934   11.5181 H           1 TSV       0.0267
     79 H28       -17.0283   -3.7972   12.8205 H           1 TSV       0.0267
     80 H29       -15.2618   -6.2441   12.5307 H           1 TSV       0.0267
     81 H30       -16.4465   -5.9800   11.2670 H           1 TSV       0.0267
     82 H31        -8.6191   -4.1823   12.4054 H           1 TSV       0.0559
     83 H32       -18.3037   -6.1065   12.7413 H           1 TSV       0.0312
     84 H33       -17.3186   -6.0322   14.1883 H           1 TSV       0.0312
     85 H34       -13.2693  -11.3956   13.6536 H           1 TSV       0.0342
     86 H35       -11.9715  -10.2249   13.3566 H           1 TSV       0.0342
     87 H36       -17.2878   -8.3500   12.1849 H           1 TSV       0.0799
     88 H37        -8.8250   -6.9942   11.0278 H           1 TSV       0.0285
     89 H38        -8.6055   -5.3184   10.1942 H           1 TSV       0.0285
     90 H39       -12.9510   -9.4719   11.3451 H           1 TSV       0.0673
     91 H40       -11.1003  -14.6395   10.6344 H           1 TSV       0.0367
     92 H41       -10.7251   -4.5525   11.1601 H           1 TSV       0.0285
     93 H42       -10.9475   -6.2439   11.9591 H           1 TSV       0.0285
     94 H43       -15.1476   -8.8106   11.3426 H           1 TSV       0.0553
     95 H44       -15.7525  -10.3857   11.9160 H           1 TSV       0.0553
@<TRIPOS>BOND
     1     6     1   1
     2     9     1   1
     3    37     2   1
     4     3    36  am
     5    44     3   1
     6     4    24   1
     7    36     4   1
     8    10     5  am
     9     5    14   2
    10     5    19   2
    11     5    39   1
    12     7     6   1
    13     6     9   1
    14     6    12   1
    15    27     7  am
    16    36     8   2
    17     9    15   1
    18    12    10  am
    19    49    11   2
    20    12    25   2
    21    13    28   1
    22    13    47   1
    23    51    13  am
    24    15    26   2
    25    31    16   1
    26    16    49  am
    27    16    50   1
    28    51    17   2
    29    24    18   1
    30    24    20   1
    31    27    21   2
    32    24    22   1
    33    46    23   1
    34    23    51   1
    35    26    29   1
    36    31    27   1
    37    28    40   2
    38    29    34   1
    39    32    30  ar
    40    33    30  ar
    41    43    31   1
    42    40    32  ar
    43    37    33  ar
    44    34    35   1
    45    35    38   1
    46    42    37  ar
    47    38    41   1
    48    39    45   1
    49    39    48   1
    50    42    40  ar
    51    41    44   1
    52    47    42   2
    53    43    46   1
    54    44    49   1
    55    45    48   1
    56    46    50   1
    57     1    52   1
    58     1    53   1
    59     3    54   1
    60     7    55   1
    61     9    56   1
    62    10    57   1
    63    15    58   1
    64    18    59   1
    65    18    60   1
    66    18    61   1
    67    20    62   1
    68    20    63   1
    69    20    64   1
    70    22    65   1
    71    22    66   1
    72    22    67   1
    73    26    68   1
    74    28    69   1
    75    29    70   1
    76    29    71   1
    77    30    72   1
    78    31    73   1
    79    32    74   1
    80    33    75   1
    81    34    76   1
    82    34    77   1
    83    35    78   1
    84    35    79   1
    85    38    80   1
    86    38    81   1
    87    39    82   1
    88    41    83   1
    89    41    84   1
    90    43    85   1
    91    43    86   1
    92    44    87   1
    93    45    88   1
    94    45    89   1
    95    46    90   1
    96    47    91   1
    97    48    92   1
    98    48    93   1
    99    50    94   1
   100    50    95   1
@<TRIPOS>SUBSTRUCTURE
     1  TSV      1

