@<TRIPOS>MOLECULE
3su2_ligand_011
    95   100
SMALL
GAST_HUCK
****
This file was generated by PARSER (from files_GN.cpp)

@<TRIPOS>ATOM
      1 C1        -16.7270   -6.5891    8.2142 C.3         1 TSV      -0.0069
      2 F1        -11.9632  -16.0019   15.3167 F           1 TSV      -0.1836
      3 N1        -11.0652   -6.3307   13.0701 N.am        1 TSV      -0.2412
      4 O1         -8.9646   -6.1063   12.1367 O.3         1 TSV      -0.2580
      5 S1        -21.0087   -6.6970    9.8238 S.o2        1 TSV       0.0645
      6 C2        -17.0108   -6.5587    9.7342 C.3         1 TSV       0.1453
      7 N2        -16.3515   -7.5763   10.4841 N.am        1 TSV      -0.2722
      8 O2        -10.6881   -4.6846   11.3978 O.2         1 TSV      -0.3774
      9 C3        -16.0364   -5.5361    9.0932 C.3         1 TSV       0.0105
     10 N3        -19.3706   -6.9516    9.5177 N.am        1 TSV      -0.1550
     11 O3        -13.3591   -6.6702   11.4079 O.2         1 TSV      -0.3942
     12 C4        -18.3900   -6.2466   10.0570 C.2         1 TSV       0.2463
     13 N4        -12.5456  -12.4256   12.9894 N.am        1 TSV      -0.2075
     14 O4        -21.4375   -7.3426   11.2143 O.2         1 TSV      -0.1503
     15 C5        -16.4240   -4.1405    8.9875 C.2         1 TSV      -0.0942
     16 N5        -14.1409   -7.8296   13.1271 N.am        1 TSV      -0.2469
     17 O5        -12.9151  -10.3105   12.0459 O.2         1 TSV      -0.3166
     18 C6         -6.6490   -6.5557   11.7531 C.3         1 TSV      -0.0320
     19 O6        -21.7832   -7.4964    8.6901 O.2         1 TSV      -0.1503
     20 C7         -8.0643   -5.5510    9.8845 C.3         1 TSV      -0.0320
     21 O7        -16.7029   -6.7389   12.5211 O.2         1 TSV      -0.3947
     22 C8         -7.4828   -4.1657   11.9650 C.3         1 TSV      -0.0320
     23 O8        -13.9157  -10.8709   14.1115 O.3         1 TSV      -0.2338
     24 C9         -7.8214   -5.5853   11.4233 C.3         1 TSV       0.0905
     25 O9        -18.5960   -5.3917   10.9082 O.2         1 TSV      -0.3402
     26 C10       -16.0074   -3.1717    9.8243 C.2         1 TSV      -0.0985
     27 C11       -16.1667   -7.5655   11.7966 C.2         1 TSV       0.2014
     28 C12       -11.9031  -12.9284   11.9091 C.2         1 TSV       0.0391
     29 C13       -15.1060   -3.3205   10.9614 C.3         1 TSV      -0.0365
     30 C14       -10.5398  -16.4347   11.9893 C.ar        1 TSV      -0.0639
     31 C15       -15.1905   -8.4847   12.3757 C.3         1 TSV       0.1363
     32 C16       -10.8179  -15.1789   11.4167 C.ar        1 TSV      -0.0660
     33 C17       -10.9246  -16.7171   13.3182 C.ar        1 TSV      -0.0284
     34 C18       -15.7461   -2.8364   12.2867 C.3         1 TSV      -0.0464
     35 C19       -14.8223   -2.8248   13.5398 C.3         1 TSV      -0.0513
     36 C20       -10.2618   -5.7017   12.1816 C.2         1 TSV       0.3223
     37 C21       -11.6023  -15.7459   14.0879 C.ar        1 TSV       0.1323
     38 C22       -14.2363   -4.2009   13.9762 C.3         1 TSV      -0.0487
     39 C23       -21.5258   -4.9780    9.6071 C.3         1 TSV       0.1004
     40 C24       -11.4969  -14.2233   12.1917 C.ar        1 TSV      -0.0325
     41 C25       -12.8403   -4.5220   13.3515 C.3         1 TSV      -0.0124
     42 C26       -11.8859  -14.4974   13.4974 C.ar        1 TSV       0.0028
     43 C27       -15.8358   -9.4942   13.3514 C.3         1 TSV       0.0206
     44 C28       -12.4310   -6.0312   13.4013 C.3         1 TSV       0.1330
     45 C29       -22.6524   -4.4367   10.5016 C.3         1 TSV      -0.0268
     46 C30       -14.7443   -9.7301   14.4099 C.3         1 TSV       0.1158
     47 C31       -12.5491  -13.3668   13.9612 C.2         1 TSV       0.0402
     48 C32       -21.2041   -3.9825   10.7301 C.3         1 TSV      -0.0268
     49 C33       -13.3310   -6.8841   12.6156 C.2         1 TSV       0.2064
     50 C34       -14.0004   -8.3817   14.4460 C.3         1 TSV       0.0677
     51 C35       -13.1190  -11.1962   13.0534 C.2         1 TSV       0.4317
     52 H1        -17.5036   -6.2189    7.5400 H           1 TSV       0.0300
     53 H2        -16.0807   -7.3939    7.8608 H           1 TSV       0.0300
     54 H3        -10.6569   -7.0622   13.5631 H           1 TSV       0.1899
     55 H4        -15.8895   -8.2639    9.9817 H           1 TSV       0.1841
     56 H5        -14.9667   -5.7444    9.1762 H           1 TSV       0.0435
     57 H6        -19.1357   -7.6582    8.8975 H           1 TSV       0.2148
     58 H7        -17.0358   -3.8803    8.2448 H           1 TSV       0.0452
     59 H8         -5.7194   -6.2208   11.2878 H           1 TSV       0.0260
     60 H9         -6.8761   -7.5614   11.3938 H           1 TSV       0.0260
     61 H10        -6.4891   -6.6110   12.8321 H           1 TSV       0.0260
     62 H11        -7.1358   -5.3443    9.3476 H           1 TSV       0.0260
     63 H12        -8.7853   -4.7773    9.6155 H           1 TSV       0.0260
     64 H13        -8.4569   -6.5100    9.5443 H           1 TSV       0.0260
     65 H14        -6.5859   -3.7715   11.4830 H           1 TSV       0.0260
     66 H15        -7.3105   -4.2031   13.0425 H           1 TSV       0.0260
     67 H16        -8.3049   -3.4730   11.7803 H           1 TSV       0.0260
     68 H17       -16.3354   -2.2484    9.6372 H           1 TSV       0.0450
     69 H18       -11.7684  -12.4638   11.0083 H           1 TSV       0.0373
     70 H19       -14.2089   -2.7305   10.7589 H           1 TSV       0.0388
     71 H20       -14.8039   -4.3557   11.0914 H           1 TSV       0.0388
     72 H21       -10.0552  -17.1428   11.4381 H           1 TSV       0.0607
     73 H22       -14.7155   -9.0622   11.5756 H           1 TSV       0.0803
     74 H23       -10.5462  -14.9676   10.4569 H           1 TSV       0.0580
     75 H24       -10.7150  -17.6297   13.7189 H           1 TSV       0.0604
     76 H25       -16.6265   -3.4528   12.5020 H           1 TSV       0.0285
     77 H26       -16.0891   -1.8084   12.1387 H           1 TSV       0.0285
     78 H27       -15.4175   -2.4299   14.3690 H           1 TSV       0.0267
     79 H28       -14.0080   -2.1185   13.3752 H           1 TSV       0.0267
     80 H29       -14.9641   -4.9814   13.7435 H           1 TSV       0.0267
     81 H30       -14.1234   -4.2041   15.0632 H           1 TSV       0.0267
     82 H31       -21.4849   -4.5545    8.6002 H           1 TSV       0.0559
     83 H32       -12.0900   -3.9374   13.8871 H           1 TSV       0.0312
     84 H33       -12.8254   -4.1814   12.3218 H           1 TSV       0.0312
     85 H34       -16.1316  -10.4223   12.8501 H           1 TSV       0.0342
     86 H35       -16.7143   -9.0750   13.8471 H           1 TSV       0.0342
     87 H36       -12.5004   -6.2892   14.4571 H           1 TSV       0.0799
     88 H37       -23.0474   -5.0908   11.2827 H           1 TSV       0.0285
     89 H38       -23.2987   -3.6667   10.0728 H           1 TSV       0.0285
     90 H39       -15.2006   -9.9354   15.3814 H           1 TSV       0.0673
     91 H40       -12.9633  -13.2744   14.8886 H           1 TSV       0.0367
     92 H41       -20.9659   -2.9677   10.4037 H           1 TSV       0.0285
     93 H42       -20.7235   -4.3822   11.6256 H           1 TSV       0.0285
     94 H43       -14.4629   -7.7111   15.1755 H           1 TSV       0.0553
     95 H44       -12.9536   -8.5576   14.7126 H           1 TSV       0.0553
@<TRIPOS>BOND
     1     6     1   1
     2     9     1   1
     3    37     2   1
     4     3    36  am
     5    44     3   1
     6     4    24   1
     7    36     4   1
     8    10     5  am
     9     5    14   2
    10     5    19   2
    11     5    39   1
    12     7     6   1
    13     6     9   1
    14     6    12   1
    15    27     7  am
    16    36     8   2
    17     9    15   1
    18    12    10  am
    19    49    11   2
    20    12    25   2
    21    13    28   1
    22    13    47   1
    23    51    13  am
    24    15    26   2
    25    31    16   1
    26    16    49  am
    27    16    50   1
    28    51    17   2
    29    24    18   1
    30    24    20   1
    31    27    21   2
    32    24    22   1
    33    46    23   1
    34    23    51   1
    35    26    29   1
    36    31    27   1
    37    28    40   2
    38    29    34   1
    39    32    30  ar
    40    33    30  ar
    41    43    31   1
    42    40    32  ar
    43    37    33  ar
    44    34    35   1
    45    35    38   1
    46    42    37  ar
    47    38    41   1
    48    39    45   1
    49    39    48   1
    50    42    40  ar
    51    41    44   1
    52    47    42   2
    53    43    46   1
    54    44    49   1
    55    45    48   1
    56    46    50   1
    57     1    52   1
    58     1    53   1
    59     3    54   1
    60     7    55   1
    61     9    56   1
    62    10    57   1
    63    15    58   1
    64    18    59   1
    65    18    60   1
    66    18    61   1
    67    20    62   1
    68    20    63   1
    69    20    64   1
    70    22    65   1
    71    22    66   1
    72    22    67   1
    73    26    68   1
    74    28    69   1
    75    29    70   1
    76    29    71   1
    77    30    72   1
    78    31    73   1
    79    32    74   1
    80    33    75   1
    81    34    76   1
    82    34    77   1
    83    35    78   1
    84    35    79   1
    85    38    80   1
    86    38    81   1
    87    39    82   1
    88    41    83   1
    89    41    84   1
    90    43    85   1
    91    43    86   1
    92    44    87   1
    93    45    88   1
    94    45    89   1
    95    46    90   1
    96    47    91   1
    97    48    92   1
    98    48    93   1
    99    50    94   1
   100    50    95   1
@<TRIPOS>SUBSTRUCTURE
     1  TSV      1

