@<TRIPOS>MOLECULE
3su2_ligand_029
    95   100
SMALL
GAST_HUCK
****
This file was generated by PARSER (from files_GN.cpp)

@<TRIPOS>ATOM
      1 C1         -9.0504   -3.7610    5.5812 C.3         1 TSV      -0.0069
      2 F1         -4.5272  -12.2947    8.9286 F           1 TSV      -0.1836
      3 N1        -12.2544   -7.5980   10.9687 N.am        1 TSV      -0.2412
      4 O1        -11.8878   -6.7983   13.1204 O.3         1 TSV      -0.2580
      5 S1        -12.4472   -4.8023    1.9926 S.o2        1 TSV       0.0645
      6 C2        -10.0396   -4.8834    5.1965 C.3         1 TSV       0.1453
      7 N2         -9.7554   -6.1650    5.7718 N.am        1 TSV      -0.2722
      8 O2        -13.8775   -6.2125   12.0432 O.2         1 TSV      -0.3774
      9 C3        -10.4267   -3.8204    6.2575 C.3         1 TSV       0.0105
     10 N3        -11.7597   -4.7774    3.5321 N.am        1 TSV      -0.1550
     11 O3        -11.0230   -6.5987    8.7411 O.2         1 TSV      -0.3942
     12 C4        -10.4675   -4.8196    3.8083 C.2         1 TSV       0.2463
     13 N4         -8.7654  -13.0410    8.6692 N.am        1 TSV      -0.2075
     14 O4        -13.8445   -5.5414    2.1457 O.2         1 TSV      -0.1503
     15 C5        -11.4345   -2.8202    5.9475 C.2         1 TSV      -0.0942
     16 N5        -11.2923   -8.5661    7.7772 N.am        1 TSV      -0.2469
     17 O5        -11.0929  -13.1257    8.3241 O.2         1 TSV      -0.3166
     18 C6        -13.1743   -6.9089   15.2073 C.3         1 TSV      -0.0320
     19 O6        -11.6190   -5.7517    1.0247 O.2         1 TSV      -0.1503
     20 C7        -10.6978   -6.3044   15.1378 C.3         1 TSV      -0.0320
     21 O7        -11.7511   -7.0569    5.3905 O.2         1 TSV      -0.3947
     22 C8        -12.4124   -4.6447   14.2738 C.3         1 TSV      -0.0320
     23 O8         -9.8367  -11.3791    7.3932 O.3         1 TSV      -0.2338
     24 C9        -12.0654   -6.1605   14.4081 C.3         1 TSV       0.0905
     25 O9         -9.6156   -4.9043    2.9305 O.2         1 TSV      -0.3402
     26 C10       -12.7174   -2.8820    6.3489 C.2         1 TSV      -0.0985
     27 C11       -10.6384   -7.1474    5.8996 C.2         1 TSV       0.2014
     28 C12        -8.6912  -14.1737    9.4077 C.2         1 TSV       0.0391
     29 C13       -13.3391   -3.9252    7.1571 C.3         1 TSV      -0.0365
     30 C14        -5.3670  -15.3410   10.7434 C.ar        1 TSV      -0.0639
     31 C15       -10.3389   -8.3282    6.7059 C.3         1 TSV       0.1363
     32 C16        -6.7593  -15.4025   10.5323 C.ar        1 TSV      -0.0660
     33 C17        -4.6060  -14.2794   10.2045 C.ar        1 TSV      -0.0284
     34 C18       -14.5295   -4.6142    6.4362 C.3         1 TSV      -0.0464
     35 C19       -15.3056   -5.6690    7.2810 C.3         1 TSV      -0.0513
     36 C20       -12.6944   -6.8666   12.0221 C.2         1 TSV       0.3223
     37 C21        -5.2282  -13.2730    9.4319 C.ar        1 TSV       0.1323
     38 C22       -14.4842   -6.9048    7.7604 C.3         1 TSV      -0.0487
     39 C23       -12.6513   -3.1597    1.2574 C.3         1 TSV       0.1004
     40 C24        -7.3668  -14.3910    9.7741 C.ar        1 TSV      -0.0325
     41 C25       -13.9240   -6.7570    9.2115 C.3         1 TSV      -0.0124
     42 C26        -6.6195  -13.3464    9.2272 C.ar        1 TSV       0.0028
     43 C27       -10.3566   -9.6077    5.8285 C.3         1 TSV       0.0206
     44 C28       -12.7868   -7.7474    9.6307 C.3         1 TSV       0.1330
     45 C29       -13.6450   -3.0257    0.0955 C.3         1 TSV      -0.0268
     46 C30       -10.9226  -10.6956    6.7469 C.3         1 TSV       0.1158
     47 C31        -7.5167  -12.5289    8.5505 C.2         1 TSV       0.0402
     48 C32       -13.9819   -2.4234    1.4658 C.3         1 TSV      -0.0268
     49 C33       -11.6462   -7.6518    8.7005 C.2         1 TSV       0.2064
     50 C34       -11.8096   -9.9035    7.7319 C.3         1 TSV       0.0677
     51 C35        -9.8975  -12.5130    8.1401 C.2         1 TSV       0.4317
     52 H1         -8.9048   -2.9402    4.8740 H           1 TSV       0.0300
     53 H2         -8.2083   -4.0525    6.2128 H           1 TSV       0.0300
     54 H3        -11.4452   -8.1050   11.1478 H           1 TSV       0.1899
     55 H4         -8.8952   -6.2780    6.2057 H           1 TSV       0.1841
     56 H5        -10.3319   -4.1159    7.3066 H           1 TSV       0.0435
     57 H6        -12.3730   -4.7461    4.2823 H           1 TSV       0.2148
     58 H7        -11.1535   -2.0337    5.4064 H           1 TSV       0.0452
     59 H8        -13.3012   -6.4718   16.1990 H           1 TSV       0.0260
     60 H9        -12.9135   -7.9616   15.3271 H           1 TSV       0.0260
     61 H10       -14.1309   -6.8539   14.6856 H           1 TSV       0.0260
     62 H11       -10.7482   -5.8839   16.1461 H           1 TSV       0.0260
     63 H12        -9.9155   -5.7798   14.5817 H           1 TSV       0.0260
     64 H13       -10.4162   -7.3576   15.2131 H           1 TSV       0.0260
     65 H14       -12.3243   -4.1395   15.2374 H           1 TSV       0.0260
     66 H15       -13.4349   -4.5041   13.9255 H           1 TSV       0.0260
     67 H16       -11.7381   -4.1623   13.5643 H           1 TSV       0.0260
     68 H17       -13.3044   -2.1253    6.0775 H           1 TSV       0.0450
     69 H18        -9.4722  -14.7832    9.6657 H           1 TSV       0.0373
     70 H19       -13.6967   -3.4633    8.0801 H           1 TSV       0.0388
     71 H20       -12.6196   -4.6940    7.4299 H           1 TSV       0.0388
     72 H21        -4.9079  -16.0675   11.2946 H           1 TSV       0.0607
     73 H22        -9.3440   -8.2330    7.1585 H           1 TSV       0.0803
     74 H23        -7.3151  -16.1656   10.9274 H           1 TSV       0.0580
     75 H24        -3.6005  -14.2432   10.3748 H           1 TSV       0.0604
     76 H25       -14.1659   -5.0980    5.5256 H           1 TSV       0.0285
     77 H26       -15.2466   -3.8434    6.1333 H           1 TSV       0.0285
     78 H27       -16.1246   -6.0376    6.6516 H           1 TSV       0.0267
     79 H28       -15.7655   -5.1753    8.1385 H           1 TSV       0.0267
     80 H29       -13.6857   -7.0880    7.0501 H           1 TSV       0.0267
     81 H30       -15.1242   -7.7922    7.7345 H           1 TSV       0.0267
     82 H31       -11.7703   -2.5200    1.1790 H           1 TSV       0.0559
     83 H32       -14.7723   -6.9051    9.8805 H           1 TSV       0.0312
     84 H33       -13.5621   -5.7401    9.3675 H           1 TSV       0.0312
     85 H34        -9.3572   -9.8557    5.4590 H           1 TSV       0.0342
     86 H35       -11.0215   -9.5074    4.9635 H           1 TSV       0.0342
     87 H36       -13.2260   -8.7430    9.6030 H           1 TSV       0.0799
     88 H37       -14.2218   -3.9118   -0.1776 H           1 TSV       0.0285
     89 H38       -13.3808   -2.3029   -0.6789 H           1 TSV       0.0285
     90 H39       -11.5125  -11.4164    6.1704 H           1 TSV       0.0673
     91 H40        -7.2595  -11.6705    8.0512 H           1 TSV       0.0367
     92 H41       -13.9286   -1.3341    1.5152 H           1 TSV       0.0285
     93 H42       -14.7682   -2.9434    2.0165 H           1 TSV       0.0285
     94 H43       -12.8463   -9.8858    7.3797 H           1 TSV       0.0553
     95 H44       -11.7730  -10.3794    8.7163 H           1 TSV       0.0553
@<TRIPOS>BOND
     1     6     1   1
     2     9     1   1
     3    37     2   1
     4     3    36  am
     5    44     3   1
     6     4    24   1
     7    36     4   1
     8    10     5  am
     9     5    14   2
    10     5    19   2
    11     5    39   1
    12     7     6   1
    13     6     9   1
    14     6    12   1
    15    27     7  am
    16    36     8   2
    17     9    15   1
    18    12    10  am
    19    49    11   2
    20    12    25   2
    21    13    28   1
    22    13    47   1
    23    51    13  am
    24    15    26   2
    25    31    16   1
    26    16    49  am
    27    16    50   1
    28    51    17   2
    29    24    18   1
    30    24    20   1
    31    27    21   2
    32    24    22   1
    33    46    23   1
    34    23    51   1
    35    26    29   1
    36    31    27   1
    37    28    40   2
    38    29    34   1
    39    32    30  ar
    40    33    30  ar
    41    43    31   1
    42    40    32  ar
    43    37    33  ar
    44    34    35   1
    45    35    38   1
    46    42    37  ar
    47    38    41   1
    48    39    45   1
    49    39    48   1
    50    42    40  ar
    51    41    44   1
    52    47    42   2
    53    43    46   1
    54    44    49   1
    55    45    48   1
    56    46    50   1
    57     1    52   1
    58     1    53   1
    59     3    54   1
    60     7    55   1
    61     9    56   1
    62    10    57   1
    63    15    58   1
    64    18    59   1
    65    18    60   1
    66    18    61   1
    67    20    62   1
    68    20    63   1
    69    20    64   1
    70    22    65   1
    71    22    66   1
    72    22    67   1
    73    26    68   1
    74    28    69   1
    75    29    70   1
    76    29    71   1
    77    30    72   1
    78    31    73   1
    79    32    74   1
    80    33    75   1
    81    34    76   1
    82    34    77   1
    83    35    78   1
    84    35    79   1
    85    38    80   1
    86    38    81   1
    87    39    82   1
    88    41    83   1
    89    41    84   1
    90    43    85   1
    91    43    86   1
    92    44    87   1
    93    45    88   1
    94    45    89   1
    95    46    90   1
    96    47    91   1
    97    48    92   1
    98    48    93   1
    99    50    94   1
   100    50    95   1
@<TRIPOS>SUBSTRUCTURE
     1  TSV      1

