@<TRIPOS>MOLECULE
3su2_ligand_041
    95   100
SMALL
GAST_HUCK
****
This file was generated by PARSER (from files_GN.cpp)

@<TRIPOS>ATOM
      1 C1        -20.9412   -8.4903    3.2893 C.3         1 TSV      -0.0069
      2 F1        -22.2882   -8.6017   14.1203 F           1 TSV      -0.1836
      3 N1        -23.1105  -12.2355    8.3945 N.am        1 TSV      -0.2412
      4 O1        -24.3376  -12.6403   10.3039 O.3         1 TSV      -0.2580
      5 S1        -15.8145   -9.4289    2.4726 S.o2        1 TSV       0.0645
      6 C2        -19.5760   -8.9767    3.8302 C.3         1 TSV       0.1453
      7 N2        -19.4229   -8.8780    5.2599 N.am        1 TSV      -0.2722
      8 O2        -22.2009  -13.6298   10.0739 O.2         1 TSV      -0.3774
      9 C3        -20.6926   -9.9990    3.4371 C.3         1 TSV       0.0105
     10 N3        -17.2172   -9.2803    3.3977 N.am        1 TSV      -0.1550
     11 O3        -21.8446  -10.0358    7.1695 O.2         1 TSV      -0.3942
     12 C4        -18.3927   -8.8317    2.9782 C.2         1 TSV       0.2463
     13 N4        -18.6834  -10.6234   12.9017 N.am        1 TSV      -0.2075
     14 O4        -15.9005  -10.6408    1.4417 O.2         1 TSV      -0.1503
     15 C5        -20.6948  -10.7939    2.2112 C.2         1 TSV      -0.0942
     16 N5        -19.9575  -10.9287    7.8933 N.am        1 TSV      -0.2469
     17 O5        -16.9415  -11.8249   11.8758 O.2         1 TSV      -0.3166
     18 C6        -26.1798  -12.5316   11.8186 C.3         1 TSV      -0.0320
     19 O6        -14.7898   -9.9991    3.5495 O.2         1 TSV      -0.1503
     20 C7        -24.7886  -14.6542   11.6595 C.3         1 TSV      -0.0320
     21 O7        -18.4933  -10.8717    5.5303 O.2         1 TSV      -0.3947
     22 C8        -23.7904  -12.5248   12.6983 C.3         1 TSV      -0.0320
     23 O8        -18.4976  -10.6628   10.5525 O.3         1 TSV      -0.2338
     24 C9        -24.7455  -13.0970   11.6085 C.3         1 TSV       0.0905
     25 O9        -18.4797   -8.3055    1.8780 O.2         1 TSV      -0.3402
     26 C10       -21.5672  -11.7659    1.8740 C.2         1 TSV      -0.0985
     27 C11       -18.9557   -9.8516    6.0335 C.2         1 TSV       0.2014
     28 C12       -18.3198  -10.9078   14.1765 C.2         1 TSV       0.0391
     29 C13       -22.7424  -12.2222    2.6060 C.3         1 TSV      -0.0365
     30 C14       -20.5177   -9.8483   17.0506 C.ar        1 TSV      -0.0639
     31 C15       -19.1265   -9.8172    7.4895 C.3         1 TSV       0.1363
     32 C16       -19.3873  -10.4394   16.4496 C.ar        1 TSV      -0.0660
     33 C17       -21.5063   -9.2219   16.2570 C.ar        1 TSV      -0.0284
     34 C18       -22.6032  -13.6949    3.1061 C.3         1 TSV      -0.0464
     35 C19       -23.5870  -14.1030    4.2509 C.3         1 TSV      -0.0513
     36 C20       -23.2006  -12.8542    9.5882 C.2         1 TSV       0.3223
     37 C21       -21.3726   -9.1757   14.8511 C.ar        1 TSV       0.1323
     38 C22       -23.0457  -13.9579    5.7090 C.3         1 TSV      -0.0487
     39 C23       -14.9029   -8.0010    1.8240 C.3         1 TSV       0.1004
     40 C24       -19.2746  -10.3988   15.0481 C.ar        1 TSV      -0.0325
     41 C25       -22.4960  -12.5478    6.0335 C.3         1 TSV      -0.0124
     42 C26       -20.2419   -9.7750   14.2639 C.ar        1 TSV       0.0028
     43 C27       -17.7982   -9.9831    8.2762 C.3         1 TSV       0.0206
     44 C28       -22.0013  -12.3002    7.4905 C.3         1 TSV       0.1330
     45 C29       -15.4890   -7.3410    0.5650 C.3         1 TSV      -0.0268
     46 C30       -18.0560  -11.1365    9.2640 C.3         1 TSV       0.1158
     47 C31       -19.8383   -9.9148   12.9401 C.2         1 TSV       0.0402
     48 C32       -15.5078   -6.5922    1.9022 C.3         1 TSV      -0.0268
     49 C33       -21.2513  -11.0406    7.5535 C.2         1 TSV       0.2064
     50 C34       -19.2122  -11.9173    8.6133 C.3         1 TSV       0.0677
     51 C35       -18.0302  -11.0206   11.7808 C.2         1 TSV       0.4317
     52 H1        -20.9791   -8.1053    2.2686 H           1 TSV       0.0300
     53 H2        -21.6179   -8.0511    4.0253 H           1 TSV       0.0300
     54 H3        -23.8545  -11.6667    8.1382 H           1 TSV       0.1899
     55 H4        -19.7978   -8.0959    5.6977 H           1 TSV       0.1841
     56 H5        -21.2354  -10.3977    4.2897 H           1 TSV       0.0435
     57 H6        -17.1632   -9.6312    4.2983 H           1 TSV       0.2148
     58 H7        -19.9595  -10.6245    1.5670 H           1 TSV       0.0452
     59 H8        -26.5748  -12.8242   12.7946 H           1 TSV       0.0260
     60 H9        -26.8536  -12.9093   11.0457 H           1 TSV       0.0260
     61 H10       -26.1734  -11.4412   11.7612 H           1 TSV       0.0260
     62 H11       -25.2042  -14.9987   12.6110 H           1 TSV       0.0260
     63 H12       -23.7870  -15.0783   11.5555 H           1 TSV       0.0260
     64 H13       -25.4089  -15.0414   10.8471 H           1 TSV       0.0260
     65 H14       -24.1467  -12.7870   13.6987 H           1 TSV       0.0260
     66 H15       -23.7385  -11.4354   12.6209 H           1 TSV       0.0260
     67 H16       -22.7813  -12.9241   12.5786 H           1 TSV       0.0260
     68 H17       -21.3967  -12.2283    1.0084 H           1 TSV       0.0450
     69 H18       -17.4952  -11.4391   14.4652 H           1 TSV       0.0373
     70 H19       -23.6024  -12.1619    1.9332 H           1 TSV       0.0388
     71 H20       -22.9689  -11.5583    3.4354 H           1 TSV       0.0388
     72 H21       -20.6178   -9.8720   18.0681 H           1 TSV       0.0607
     73 H22       -19.5923   -8.8763    7.8076 H           1 TSV       0.0803
     74 H23       -18.6709  -10.9018   17.0151 H           1 TSV       0.0580
     75 H24       -22.3227   -8.8066   16.7092 H           1 TSV       0.0604
     76 H25       -21.5775  -13.8845    3.4355 H           1 TSV       0.0285
     77 H26       -22.7815  -14.3514    2.2475 H           1 TSV       0.0285
     78 H27       -23.8520  -15.1557    4.1111 H           1 TSV       0.0267
     79 H28       -24.5152  -13.5317    4.1543 H           1 TSV       0.0267
     80 H29       -22.2496  -14.6936    5.8609 H           1 TSV       0.0267
     81 H30       -23.8576  -14.1989    6.4018 H           1 TSV       0.0267
     82 H31       -13.8087   -8.0592    1.7997 H           1 TSV       0.0559
     83 H32       -23.2665  -11.8107    5.7870 H           1 TSV       0.0312
     84 H33       -21.6396  -12.3939    5.3740 H           1 TSV       0.0312
     85 H34       -17.5286   -9.0655    8.8102 H           1 TSV       0.0342
     86 H35       -16.9619  -10.2510    7.6196 H           1 TSV       0.0342
     87 H36       -21.3509  -13.1429    7.7333 H           1 TSV       0.0799
     88 H37       -16.4617   -7.6911    0.2117 H           1 TSV       0.0285
     89 H38       -14.7622   -6.9746   -0.1646 H           1 TSV       0.0285
     90 H39       -17.1669  -11.7748    9.3580 H           1 TSV       0.0673
     91 H40       -20.3681   -9.5746   12.1314 H           1 TSV       0.0367
     92 H41       -14.7911   -5.7721    1.9850 H           1 TSV       0.0285
     93 H42       -16.4800   -6.4997    2.3861 H           1 TSV       0.0285
     94 H43       -18.8246  -12.6674    7.9167 H           1 TSV       0.0553
     95 H44       -19.8060  -12.4161    9.3856 H           1 TSV       0.0553
@<TRIPOS>BOND
     1     6     1   1
     2     9     1   1
     3    37     2   1
     4     3    36  am
     5    44     3   1
     6     4    24   1
     7    36     4   1
     8    10     5  am
     9     5    14   2
    10     5    19   2
    11     5    39   1
    12     7     6   1
    13     6     9   1
    14     6    12   1
    15    27     7  am
    16    36     8   2
    17     9    15   1
    18    12    10  am
    19    49    11   2
    20    12    25   2
    21    13    28   1
    22    13    47   1
    23    51    13  am
    24    15    26   2
    25    31    16   1
    26    16    49  am
    27    16    50   1
    28    51    17   2
    29    24    18   1
    30    24    20   1
    31    27    21   2
    32    24    22   1
    33    46    23   1
    34    23    51   1
    35    26    29   1
    36    31    27   1
    37    28    40   2
    38    29    34   1
    39    32    30  ar
    40    33    30  ar
    41    43    31   1
    42    40    32  ar
    43    37    33  ar
    44    34    35   1
    45    35    38   1
    46    42    37  ar
    47    38    41   1
    48    39    45   1
    49    39    48   1
    50    42    40  ar
    51    41    44   1
    52    47    42   2
    53    43    46   1
    54    44    49   1
    55    45    48   1
    56    46    50   1
    57     1    52   1
    58     1    53   1
    59     3    54   1
    60     7    55   1
    61     9    56   1
    62    10    57   1
    63    15    58   1
    64    18    59   1
    65    18    60   1
    66    18    61   1
    67    20    62   1
    68    20    63   1
    69    20    64   1
    70    22    65   1
    71    22    66   1
    72    22    67   1
    73    26    68   1
    74    28    69   1
    75    29    70   1
    76    29    71   1
    77    30    72   1
    78    31    73   1
    79    32    74   1
    80    33    75   1
    81    34    76   1
    82    34    77   1
    83    35    78   1
    84    35    79   1
    85    38    80   1
    86    38    81   1
    87    39    82   1
    88    41    83   1
    89    41    84   1
    90    43    85   1
    91    43    86   1
    92    44    87   1
    93    45    88   1
    94    45    89   1
    95    46    90   1
    96    47    91   1
    97    48    92   1
    98    48    93   1
    99    50    94   1
   100    50    95   1
@<TRIPOS>SUBSTRUCTURE
     1  TSV      1

