@<TRIPOS>MOLECULE
3su2_ligand_006
    95   100
SMALL
GAST_HUCK
****
This file was generated by PARSER (from files_GN.cpp)

@<TRIPOS>ATOM
      1 C1        -11.9565   -7.7372   15.6146 C.3         1 TSV      -0.0069
      2 F1        -11.2522  -11.9272    3.5207 F           1 TSV      -0.1836
      3 N1        -17.7008   -7.0315   10.6954 N.am        1 TSV      -0.2412
      4 O1        -19.6667   -7.8526   11.6042 O.3         1 TSV      -0.2580
      5 S1         -8.0136   -6.0827   13.7271 S.o2        1 TSV       0.0645
      6 C2        -11.8604   -6.9913   14.2620 C.3         1 TSV       0.1453
      7 N2        -12.2548   -7.7859   13.1428 N.am        1 TSV      -0.2722
      8 O2        -18.0219   -6.9669   13.0494 O.2         1 TSV      -0.3774
      9 C3        -13.0222   -6.6996   15.2443 C.3         1 TSV       0.0105
     10 N3         -9.4878   -6.8204   14.0754 N.am        1 TSV      -0.1550
     11 O3        -15.3906   -7.6319   12.1909 O.2         1 TSV      -0.3942
     12 C4        -10.6480   -6.1959   14.1680 C.2         1 TSV       0.2463
     13 N4        -12.0838   -7.9591    4.9808 N.am        1 TSV      -0.2075
     14 O4         -7.4833   -5.3075   15.0108 O.2         1 TSV      -0.1503
     15 C5        -13.0720   -5.4203   15.9275 C.2         1 TSV      -0.0942
     16 N5        -14.2095   -7.4931   10.3370 N.am        1 TSV      -0.2469
     17 O5        -12.5811   -5.9662    6.1455 O.2         1 TSV      -0.3166
     18 C6        -22.0119   -7.4419   11.8516 C.3         1 TSV      -0.0320
     19 O6         -8.2006   -5.0883   12.4979 O.2         1 TSV      -0.1503
     20 C7        -21.0107   -9.7543   12.2606 C.3         1 TSV      -0.0320
     21 O7        -12.0416   -6.2163   11.5813 O.2         1 TSV      -0.3947
     22 C8        -20.6399   -7.8870   13.9384 C.3         1 TSV      -0.0320
     23 O8        -12.2961   -7.9763    7.3281 O.3         1 TSV      -0.2338
     24 C9        -20.7951   -8.2240   12.4263 C.3         1 TSV       0.0905
     25 O9        -10.7483   -4.9842   14.0179 O.2         1 TSV      -0.3402
     26 C10       -13.7641   -4.3535   15.4850 C.2         1 TSV      -0.0985
     27 C11       -12.3978   -7.3443   11.9022 C.2         1 TSV       0.2014
     28 C12       -12.0069   -7.4020    3.7491 C.2         1 TSV       0.0391
     29 C13       -14.5876   -4.2713   14.2810 C.3         1 TSV      -0.0365
     30 C14       -11.2067   -9.5578    0.7518 C.ar        1 TSV      -0.0639
     31 C15       -13.0667   -8.1775   10.9068 C.3         1 TSV       0.1363
     32 C16       -11.5029   -8.3528    1.4295 C.ar        1 TSV      -0.0660
     33 C17       -11.1255  -10.7736    1.4637 C.ar        1 TSV      -0.0284
     34 C18       -14.0991   -3.1767   13.2969 C.3         1 TSV      -0.0464
     35 C19       -15.0080   -2.8967   12.0696 C.3         1 TSV      -0.0513
     36 C20       -18.4392   -7.2927   11.7982 C.2         1 TSV       0.3223
     37 C21       -11.3320  -10.8022    2.8585 C.ar        1 TSV       0.1323
     38 C22       -15.1708   -4.0902   11.0747 C.3         1 TSV      -0.0487
     39 C23        -6.8119   -7.3623   13.2824 C.3         1 TSV       0.1004
     40 C24       -11.7111   -8.3934    2.8222 C.ar        1 TSV      -0.0325
     41 C25       -16.4198   -4.9785   11.3413 C.3         1 TSV      -0.0124
     42 C26       -11.6214   -9.5930    3.5241 C.ar        1 TSV       0.0028
     43 C27       -12.1591   -8.5229    9.7046 C.3         1 TSV       0.0206
     44 C28       -16.4295   -6.3583   10.6049 C.3         1 TSV       0.1330
     45 C29        -7.2531   -8.3298   12.1692 C.3         1 TSV      -0.0268
     46 C30       -12.5167   -7.4628    8.6529 C.3         1 TSV       0.1158
     47 C31       -11.8555   -9.2890    4.8614 C.2         1 TSV       0.0402
     48 C32        -6.1105   -7.3387   11.9120 C.3         1 TSV      -0.0268
     49 C33       -15.3251   -7.2209   11.0385 C.2         1 TSV       0.2064
     50 C34       -13.9862   -7.1169    8.9686 C.3         1 TSV       0.0677
     51 C35       -12.3333   -7.3025    6.1463 C.2         1 TSV       0.4317
     52 H1        -11.2931   -7.4402   16.4307 H           1 TSV       0.0300
     53 H2        -12.2987   -8.7739   15.5784 H           1 TSV       0.0300
     54 H3        -18.0978   -7.3019    9.8460 H           1 TSV       0.1899
     55 H4        -12.5358   -8.6961   13.3212 H           1 TSV       0.1841
     56 H5        -13.9831   -7.1741   15.0241 H           1 TSV       0.0435
     57 H6         -9.4886   -7.7866   14.1515 H           1 TSV       0.2148
     58 H7        -12.5759   -5.3293   16.7845 H           1 TSV       0.0452
     59 H8        -22.9300   -7.6831   12.3932 H           1 TSV       0.0260
     60 H9        -22.1632   -7.6835   10.7947 H           1 TSV       0.0260
     61 H10       -21.8410   -6.3628   11.9285 H           1 TSV       0.0260
     62 H11       -21.8933  -10.0840   12.8098 H           1 TSV       0.0260
     63 H12       -20.1421  -10.3012   12.6420 H           1 TSV       0.0260
     64 H13       -21.1406  -10.0187   11.2067 H           1 TSV       0.0260
     65 H14       -21.5532   -8.1386   14.4824 H           1 TSV       0.0260
     66 H15       -20.4420   -6.8244   14.0772 H           1 TSV       0.0260
     67 H16       -19.8122   -8.4519   14.3756 H           1 TSV       0.0260
     68 H17       -13.7237   -3.5292   16.0486 H           1 TSV       0.0450
     69 H18       -12.1272   -6.4122    3.5232 H           1 TSV       0.0373
     70 H19       -15.6120   -4.0448   14.5946 H           1 TSV       0.0388
     71 H20       -14.6081   -5.2259   13.7542 H           1 TSV       0.0388
     72 H21       -11.0485   -9.5441   -0.2549 H           1 TSV       0.0607
     73 H22       -13.3985   -9.1230   11.3575 H           1 TSV       0.0803
     74 H23       -11.5596   -7.4670    0.9184 H           1 TSV       0.0580
     75 H24       -10.9118  -11.6369    0.9615 H           1 TSV       0.0604
     76 H25       -13.1061   -3.4539   12.9360 H           1 TSV       0.0285
     77 H26       -14.0028   -2.2397   13.8486 H           1 TSV       0.0285
     78 H27       -14.5492   -2.0692   11.5202 H           1 TSV       0.0267
     79 H28       -15.9877   -2.5441   12.3998 H           1 TSV       0.0267
     80 H29       -14.2555   -4.6885   11.1050 H           1 TSV       0.0267
     81 H30       -15.2564   -3.6924   10.0583 H           1 TSV       0.0267
     82 H31        -6.2722   -7.8597   14.0922 H           1 TSV       0.0559
     83 H32       -17.3048   -4.4095   11.0385 H           1 TSV       0.0312
     84 H33       -16.5097   -5.1432   12.4138 H           1 TSV       0.0312
     85 H34       -12.4075   -9.5220    9.3306 H           1 TSV       0.0342
     86 H35       -11.0957   -8.5038    9.9577 H           1 TSV       0.0342
     87 H36       -16.3316   -6.1224    9.5470 H           1 TSV       0.0799
     88 H37        -8.1750   -8.1041   11.6310 H           1 TSV       0.0285
     89 H38        -6.9414   -9.3704   12.2769 H           1 TSV       0.0285
     90 H39       -11.8836   -6.5833    8.8168 H           1 TSV       0.0673
     91 H40       -11.8516   -9.9732    5.6206 H           1 TSV       0.0367
     92 H41        -5.1204   -7.7934   11.8641 H           1 TSV       0.0285
     93 H42        -6.3609   -6.5316   11.2223 H           1 TSV       0.0285
     94 H43       -14.1365   -6.0458    8.8110 H           1 TSV       0.0553
     95 H44       -14.6657   -7.6771    8.3207 H           1 TSV       0.0553
@<TRIPOS>BOND
     1     6     1   1
     2     9     1   1
     3    37     2   1
     4     3    36  am
     5    44     3   1
     6     4    24   1
     7    36     4   1
     8    10     5  am
     9     5    14   2
    10     5    19   2
    11     5    39   1
    12     7     6   1
    13     6     9   1
    14     6    12   1
    15    27     7  am
    16    36     8   2
    17     9    15   1
    18    12    10  am
    19    49    11   2
    20    12    25   2
    21    13    28   1
    22    13    47   1
    23    51    13  am
    24    15    26   2
    25    31    16   1
    26    16    49  am
    27    16    50   1
    28    51    17   2
    29    24    18   1
    30    24    20   1
    31    27    21   2
    32    24    22   1
    33    46    23   1
    34    23    51   1
    35    26    29   1
    36    31    27   1
    37    28    40   2
    38    29    34   1
    39    32    30  ar
    40    33    30  ar
    41    43    31   1
    42    40    32  ar
    43    37    33  ar
    44    34    35   1
    45    35    38   1
    46    42    37  ar
    47    38    41   1
    48    39    45   1
    49    39    48   1
    50    42    40  ar
    51    41    44   1
    52    47    42   2
    53    43    46   1
    54    44    49   1
    55    45    48   1
    56    46    50   1
    57     1    52   1
    58     1    53   1
    59     3    54   1
    60     7    55   1
    61     9    56   1
    62    10    57   1
    63    15    58   1
    64    18    59   1
    65    18    60   1
    66    18    61   1
    67    20    62   1
    68    20    63   1
    69    20    64   1
    70    22    65   1
    71    22    66   1
    72    22    67   1
    73    26    68   1
    74    28    69   1
    75    29    70   1
    76    29    71   1
    77    30    72   1
    78    31    73   1
    79    32    74   1
    80    33    75   1
    81    34    76   1
    82    34    77   1
    83    35    78   1
    84    35    79   1
    85    38    80   1
    86    38    81   1
    87    39    82   1
    88    41    83   1
    89    41    84   1
    90    43    85   1
    91    43    86   1
    92    44    87   1
    93    45    88   1
    94    45    89   1
    95    46    90   1
    96    47    91   1
    97    48    92   1
    98    48    93   1
    99    50    94   1
   100    50    95   1
@<TRIPOS>SUBSTRUCTURE
     1  TSV      1

