@<TRIPOS>MOLECULE
3su2_ligand_020
    95   100
SMALL
GAST_HUCK
****
This file was generated by PARSER (from files_GN.cpp)

@<TRIPOS>ATOM
      1 C1        -10.3684   -6.5429   14.5786 C.3         1 TSV      -0.0069
      2 F1         -5.3076   -9.8366    6.4514 F           1 TSV      -0.1836
      3 N1        -12.2590  -12.7397   11.1573 N.am        1 TSV      -0.2412
      4 O1        -11.3523  -14.6728   12.0660 O.3         1 TSV      -0.2580
      5 S1        -14.4574   -3.9049   13.0540 S.o2        1 TSV       0.0645
      6 C2        -11.3929   -6.4374   13.4355 C.3         1 TSV       0.1453
      7 N2        -10.9907   -7.0252   12.1919 N.am        1 TSV      -0.2722
      8 O2        -13.3636  -13.8596   12.9437 O.2         1 TSV      -0.3774
      9 C3        -11.5850   -7.4808   14.5592 C.3         1 TSV       0.0105
     10 N3        -13.4512   -5.2446   13.2037 N.am        1 TSV      -0.1550
     11 O3        -11.5680  -10.2083   12.0122 O.2         1 TSV      -0.3942
     12 C4        -12.1472   -5.1933   13.4207 C.2         1 TSV       0.2463
     13 N4         -9.4748   -9.8609    5.3666 N.am        1 TSV      -0.2075
     14 O4        -15.8499   -4.4576   12.5064 O.2         1 TSV      -0.1503
     15 C5        -12.6333   -7.3112   15.5508 C.2         1 TSV      -0.0942
     16 N5        -12.0527   -9.4891    9.9764 N.am        1 TSV      -0.2469
     17 O5        -11.8053   -9.6605    5.0868 O.2         1 TSV      -0.3166
     18 C6        -11.1933  -15.5016   14.3993 C.3         1 TSV      -0.0320
     19 O6        -13.9135   -2.9606   11.8998 O.2         1 TSV      -0.1503
     20 C7        -12.2345  -16.9294   12.5366 C.3         1 TSV      -0.0320
     21 O7        -13.0305   -7.2162   11.3290 O.2         1 TSV      -0.3947
     22 C8         -9.7428  -16.3966   12.5099 C.3         1 TSV      -0.0320
     23 O8        -10.8079   -9.0272    7.1190 O.3         1 TSV      -0.2338
     24 C9        -11.1595  -15.8558   12.8791 C.3         1 TSV       0.0905
     25 O9        -11.5405   -4.1341   13.5111 O.2         1 TSV      -0.3402
     26 C10       -13.8070   -7.9718   15.5291 C.2         1 TSV      -0.0985
     27 C11       -11.8276   -7.4309   11.2428 C.2         1 TSV       0.2014
     28 C12        -9.2420  -10.4094    4.1507 C.2         1 TSV       0.0391
     29 C13       -14.2318   -8.9881   14.5747 C.3         1 TSV      -0.0365
     30 C14        -5.7219  -11.2718    3.1255 C.ar        1 TSV      -0.0639
     31 C15       -11.3584   -8.2235   10.1103 C.3         1 TSV       0.1363
     32 C16        -7.1207  -11.1781    2.9666 C.ar        1 TSV      -0.0660
     33 C17        -5.1046  -10.8170    4.3122 C.ar        1 TSV      -0.0284
     34 C18       -15.5606   -8.6405   13.8487 C.3         1 TSV      -0.0464
     35 C19       -16.1102   -9.7411   12.8986 C.3         1 TSV      -0.0513
     36 C20       -12.3433  -13.7432   12.0689 C.2         1 TSV       0.3223
     37 C21        -5.8780  -10.2645    5.3572 C.ar        1 TSV       0.1323
     38 C22       -15.1946  -10.1285   11.6937 C.3         1 TSV      -0.0487
     39 C23       -14.6728   -2.9792   14.5903 C.3         1 TSV       0.1004
     40 C24        -7.8768  -10.6295    4.0156 C.ar        1 TSV      -0.0325
     41 C25       -14.2808  -11.3494   11.9572 C.3         1 TSV      -0.0124
     42 C26        -7.2711  -10.1869    5.1877 C.ar        1 TSV       0.0028
     43 C27       -11.6095   -7.4629    8.7794 C.3         1 TSV       0.0206
     44 C28       -13.0830  -11.5668   10.9708 C.3         1 TSV       0.1330
     45 C29       -16.0370   -2.9627   15.2954 C.3         1 TSV      -0.0268
     46 C30       -11.9937   -8.5605    7.7816 C.3         1 TSV       0.1158
     47 C31        -8.2936   -9.7177    6.0107 C.2         1 TSV       0.0402
     48 C32       -14.8887   -3.8011   15.8706 C.3         1 TSV      -0.0268
     49 C33       -12.1837  -10.3961   10.9676 C.2         1 TSV       0.2064
     50 C34       -12.6004   -9.6640    8.6655 C.3         1 TSV       0.0677
     51 C35       -10.6952   -9.5116    5.8503 C.2         1 TSV       0.4317
     52 H1        -10.3750   -5.7651   15.3445 H           1 TSV       0.0300
     53 H2         -9.4169   -7.0179   14.3359 H           1 TSV       0.0300
     54 H3        -11.4944  -12.7984   10.5535 H           1 TSV       0.1899
     55 H4        -10.0530   -7.2483   12.0875 H           1 TSV       0.1841
     56 H5        -11.2830   -8.5032   14.3378 H           1 TSV       0.0435
     57 H6        -13.8577   -6.1188   13.1119 H           1 TSV       0.2148
     58 H7        -12.4766   -6.6620   16.2870 H           1 TSV       0.0452
     59 H8        -10.8722  -16.3480   15.0066 H           1 TSV       0.0260
     60 H9        -12.1951  -15.2272   14.7316 H           1 TSV       0.0260
     61 H10       -10.5337  -14.6603   14.6005 H           1 TSV       0.0260
     62 H11       -12.0344  -17.8606   13.0750 H           1 TSV       0.0260
     63 H12       -12.2293  -17.1389   11.4644 H           1 TSV       0.0260
     64 H13       -13.2325  -16.5827   12.8129 H           1 TSV       0.0260
     65 H14        -9.5160  -17.3123   13.0665 H           1 TSV       0.0260
     66 H15        -8.9762  -15.6512   12.7432 H           1 TSV       0.0260
     67 H16        -9.6883  -16.6208   11.4398 H           1 TSV       0.0260
     68 H17       -14.4423   -7.7637   16.2646 H           1 TSV       0.0450
     69 H18        -9.9437  -10.6389    3.4435 H           1 TSV       0.0373
     70 H19       -14.3615   -9.9227   15.1275 H           1 TSV       0.0388
     71 H20       -13.4654   -9.1554   13.8174 H           1 TSV       0.0388
     72 H21        -5.1534  -11.6717    2.3769 H           1 TSV       0.0607
     73 H22       -10.2861   -8.4285   10.2042 H           1 TSV       0.0803
     74 H23        -7.5731  -11.5039    2.1106 H           1 TSV       0.0580
     75 H24        -4.0905  -10.8949    4.4119 H           1 TSV       0.0604
     76 H25       -15.4187   -7.7182   13.2773 H           1 TSV       0.0285
     77 H26       -16.3220   -8.4373   14.6056 H           1 TSV       0.0285
     78 H27       -17.0491   -9.3632   12.4945 H           1 TSV       0.0267
     79 H28       -16.3575  -10.6297   13.4834 H           1 TSV       0.0267
     80 H29       -14.5957   -9.2597   11.4169 H           1 TSV       0.0267
     81 H30       -15.8299  -10.3731   10.8324 H           1 TSV       0.0267
     82 H31       -14.0542   -2.0985   14.7432 H           1 TSV       0.0559
     83 H32       -14.9254  -12.2288   11.9056 H           1 TSV       0.0312
     84 H33       -13.8812  -11.3034   12.9706 H           1 TSV       0.0312
     85 H34       -10.7252   -6.9054    8.4595 H           1 TSV       0.0342
     86 H35       -12.4455   -6.7582    8.8534 H           1 TSV       0.0342
     87 H36       -13.5295  -11.7013    9.9851 H           1 TSV       0.0799
     88 H37       -16.8464   -3.5466   14.8524 H           1 TSV       0.0285
     89 H38       -16.2739   -2.0481   15.8417 H           1 TSV       0.0285
     90 H39       -12.7326   -8.1893    7.0648 H           1 TSV       0.0673
     91 H40        -8.1557   -9.3268    6.9454 H           1 TSV       0.0367
     92 H41       -14.4346   -3.4054   16.7799 H           1 TSV       0.0285
     93 H42       -15.0104   -4.8814   15.7640 H           1 TSV       0.0285
     94 H43       -13.6865   -9.5593    8.7076 H           1 TSV       0.0553
     95 H44       -12.3460  -10.6414    8.2454 H           1 TSV       0.0553
@<TRIPOS>BOND
     1     6     1   1
     2     9     1   1
     3    37     2   1
     4     3    36  am
     5    44     3   1
     6     4    24   1
     7    36     4   1
     8    10     5  am
     9     5    14   2
    10     5    19   2
    11     5    39   1
    12     7     6   1
    13     6     9   1
    14     6    12   1
    15    27     7  am
    16    36     8   2
    17     9    15   1
    18    12    10  am
    19    49    11   2
    20    12    25   2
    21    13    28   1
    22    13    47   1
    23    51    13  am
    24    15    26   2
    25    31    16   1
    26    16    49  am
    27    16    50   1
    28    51    17   2
    29    24    18   1
    30    24    20   1
    31    27    21   2
    32    24    22   1
    33    46    23   1
    34    23    51   1
    35    26    29   1
    36    31    27   1
    37    28    40   2
    38    29    34   1
    39    32    30  ar
    40    33    30  ar
    41    43    31   1
    42    40    32  ar
    43    37    33  ar
    44    34    35   1
    45    35    38   1
    46    42    37  ar
    47    38    41   1
    48    39    45   1
    49    39    48   1
    50    42    40  ar
    51    41    44   1
    52    47    42   2
    53    43    46   1
    54    44    49   1
    55    45    48   1
    56    46    50   1
    57     1    52   1
    58     1    53   1
    59     3    54   1
    60     7    55   1
    61     9    56   1
    62    10    57   1
    63    15    58   1
    64    18    59   1
    65    18    60   1
    66    18    61   1
    67    20    62   1
    68    20    63   1
    69    20    64   1
    70    22    65   1
    71    22    66   1
    72    22    67   1
    73    26    68   1
    74    28    69   1
    75    29    70   1
    76    29    71   1
    77    30    72   1
    78    31    73   1
    79    32    74   1
    80    33    75   1
    81    34    76   1
    82    34    77   1
    83    35    78   1
    84    35    79   1
    85    38    80   1
    86    38    81   1
    87    39    82   1
    88    41    83   1
    89    41    84   1
    90    43    85   1
    91    43    86   1
    92    44    87   1
    93    45    88   1
    94    45    89   1
    95    46    90   1
    96    47    91   1
    97    48    92   1
    98    48    93   1
    99    50    94   1
   100    50    95   1
@<TRIPOS>SUBSTRUCTURE
     1  TSV      1

