@<TRIPOS>MOLECULE
3su2_ligand_031
    95   100
SMALL
GAST_HUCK
****
This file was generated by PARSER (from files_GN.cpp)

@<TRIPOS>ATOM
      1 C1        -12.8949  -13.0231   15.2216 C.3         1 TSV      -0.0069
      2 F1         -6.6450   -8.2478    6.4403 F           1 TSV      -0.1836
      3 N1         -8.3412  -15.2924    9.5111 N.am        1 TSV      -0.2412
      4 O1         -6.1918  -14.7976    8.8747 O.3         1 TSV      -0.2580
      5 S1        -17.2531  -12.3979   13.6808 S.o2        1 TSV       0.0645
      6 C2        -13.3945  -13.4364   13.8170 C.3         1 TSV       0.1453
      7 N2        -12.7776  -12.7505   12.7286 N.am        1 TSV      -0.2722
      8 O2         -7.9655  -13.4829    8.0158 O.2         1 TSV      -0.3774
      9 C3        -12.3929  -14.3315   14.5879 C.3         1 TSV       0.0105
     10 N3        -15.5678  -12.4637   13.7280 N.am        1 TSV      -0.1550
     11 O3        -10.1115  -14.0811   11.3307 O.2         1 TSV      -0.3942
     12 C4        -14.8385  -13.5607   13.7874 C.2         1 TSV       0.2463
     13 N4        -10.8073   -8.5173    7.4834 N.am        1 TSV      -0.2075
     14 O4        -17.8338  -13.4738   14.6909 O.2         1 TSV      -0.1503
     15 C5        -12.8400  -15.6163   15.0849 C.2         1 TSV      -0.0942
     16 N5        -11.3018  -13.3320    9.6226 N.am        1 TSV      -0.2469
     17 O5        -13.0737   -9.0550    7.8264 O.2         1 TSV      -0.3166
     18 C6         -5.1939  -14.2272    6.6806 C.3         1 TSV      -0.0320
     19 O6        -17.8080  -12.6725   12.2113 O.2         1 TSV      -0.1503
     20 C7         -4.7512  -12.8020    8.7654 C.3         1 TSV      -0.0320
     21 O7        -13.5880  -14.0845   11.1482 O.2         1 TSV      -0.3947
     22 C8         -3.8440  -15.1841    8.6101 C.3         1 TSV      -0.0320
     23 O8        -11.4659  -10.7638    7.8392 O.3         1 TSV      -0.2338
     24 C9         -5.0220  -14.2409    8.2300 C.3         1 TSV       0.0905
     25 O9        -15.3433  -14.6862   13.7762 O.2         1 TSV      -0.3402
     26 C10       -12.6770  -16.7857   14.4346 C.2         1 TSV      -0.0985
     27 C11       -12.8830  -13.1378   11.4624 C.2         1 TSV       0.2014
     28 C12       -10.9857   -7.1782    7.4784 C.2         1 TSV       0.0391
     29 C13       -12.0438  -16.9984   13.1356 C.3         1 TSV      -0.0365
     30 C14        -8.0722   -4.9053    6.7375 C.ar        1 TSV      -0.0639
     31 C15       -12.1272  -12.4477   10.4202 C.3         1 TSV       0.1363
     32 C16        -9.4069   -5.2173    7.0724 C.ar        1 TSV      -0.0660
     33 C17        -7.1280   -5.9388    6.5213 C.ar        1 TSV      -0.0284
     34 C18       -12.9870  -17.6874   12.1116 C.3         1 TSV      -0.0464
     35 C19       -12.3216  -18.1311   10.7752 C.3         1 TSV      -0.0513
     36 C20        -7.5146  -14.4772    8.8287 C.2         1 TSV       0.3223
     37 C21        -7.5099   -7.2923    6.6533 C.ar        1 TSV       0.1323
     38 C22       -11.7648  -16.9933    9.8674 C.3         1 TSV      -0.0487
     39 C23       -17.9195  -10.8351   14.2963 C.3         1 TSV       0.1004
     40 C24        -9.7740   -6.5677    7.1923 C.ar        1 TSV      -0.0325
     41 C25       -10.2517  -16.6809   10.0604 C.3         1 TSV      -0.0124
     42 C26        -8.8404   -7.5862    7.0003 C.ar        1 TSV       0.0028
     43 C27       -13.0947  -11.7579    9.4252 C.3         1 TSV       0.0206
     44 C28        -9.7804  -15.3232    9.4503 C.3         1 TSV       0.1330
     45 C29       -16.9746   -9.8305   14.9734 C.3         1 TSV      -0.0268
     46 C30       -12.3675  -11.8652    8.0766 C.3         1 TSV       0.1158
     47 C31        -9.5114   -8.7841    7.2097 C.2         1 TSV       0.0402
     48 C32       -17.5197   -9.5469   13.5656 C.3         1 TSV      -0.0268
     49 C33       -10.3952  -14.1810   10.1388 C.2         1 TSV       0.2064
     50 C34       -11.5826  -13.1867    8.2236 C.3         1 TSV       0.0677
     51 C35       -11.7782   -9.4427    7.7161 C.2         1 TSV       0.4317
     52 H1        -13.5686  -13.1505   16.0753 H           1 TSV       0.0300
     53 H2        -12.1650  -12.2114   15.2596 H           1 TSV       0.0300
     54 H3         -7.9121  -15.9956   10.0397 H           1 TSV       0.1899
     55 H4        -12.1948  -12.0019   12.9268 H           1 TSV       0.1841
     56 H5        -11.3399  -14.2552   14.3009 H           1 TSV       0.0435
     57 H6        -15.0935  -11.6161   13.6926 H           1 TSV       0.2148
     58 H7        -13.2816  -15.6386   15.9764 H           1 TSV       0.0452
     59 H8         -4.2506  -13.9493    6.1934 H           1 TSV       0.0260
     60 H9         -5.9772  -13.5173    6.3899 H           1 TSV       0.0260
     61 H10        -5.4790  -15.2186    6.3221 H           1 TSV       0.0260
     62 H11        -3.8271  -12.3987    8.3402 H           1 TSV       0.0260
     63 H12        -4.6567  -12.8159    9.8559 H           1 TSV       0.0260
     64 H13        -5.5737  -12.1304    8.5027 H           1 TSV       0.0260
     65 H14        -2.9155  -14.8563    8.1376 H           1 TSV       0.0260
     66 H15        -4.0536  -16.2044    8.2796 H           1 TSV       0.0260
     67 H16        -3.6995  -15.1993    9.6936 H           1 TSV       0.0260
     68 H17       -13.0074  -17.6012   14.9015 H           1 TSV       0.0450
     69 H18       -11.8565   -6.6778    7.6644 H           1 TSV       0.0373
     70 H19       -11.1681  -17.6328   13.2974 H           1 TSV       0.0388
     71 H20       -11.6979  -16.0578   12.7055 H           1 TSV       0.0388
     72 H21        -7.7833   -3.9256    6.6433 H           1 TSV       0.0607
     73 H22       -11.4719  -11.6869   10.8633 H           1 TSV       0.0803
     74 H23       -10.0918   -4.4711    7.2218 H           1 TSV       0.0580
     75 H24        -6.1637   -5.6967    6.2702 H           1 TSV       0.0604
     76 H25       -13.8194  -17.0125   11.8907 H           1 TSV       0.0285
     77 H26       -13.4109  -18.5834   12.5787 H           1 TSV       0.0285
     78 H27       -13.0931  -18.6587   10.2096 H           1 TSV       0.0267
     79 H28       -11.5364  -18.8594   10.9875 H           1 TSV       0.0267
     80 H29       -12.3629  -16.0960   10.0237 H           1 TSV       0.0267
     81 H30       -11.9028  -17.2863    8.8230 H           1 TSV       0.0267
     82 H31       -18.9471  -10.8326   14.6609 H           1 TSV       0.0559
     83 H32        -9.6890  -17.4935    9.5885 H           1 TSV       0.0312
     84 H33        -9.9954  -16.7078   11.1223 H           1 TSV       0.0312
     85 H34       -13.2927  -10.7262    9.7240 H           1 TSV       0.0342
     86 H35       -14.0521  -12.2873    9.3415 H           1 TSV       0.0342
     87 H36       -10.0606  -15.3431    8.3955 H           1 TSV       0.0799
     88 H37       -15.9092  -10.0667   15.0097 H           1 TSV       0.0285
     89 H38       -17.4094   -9.2199   15.7677 H           1 TSV       0.0285
     90 H39       -13.0759  -11.9292    7.2470 H           1 TSV       0.0673
     91 H40        -9.0887   -9.7111    7.1333 H           1 TSV       0.0367
     92 H41       -18.2818   -8.7663   13.5175 H           1 TSV       0.0285
     93 H42       -16.7904   -9.6333   12.7574 H           1 TSV       0.0285
     94 H43       -12.1872  -14.0317    7.8849 H           1 TSV       0.0553
     95 H44       -10.6694  -13.1401    7.6255 H           1 TSV       0.0553
@<TRIPOS>BOND
     1     6     1   1
     2     9     1   1
     3    37     2   1
     4     3    36  am
     5    44     3   1
     6     4    24   1
     7    36     4   1
     8    10     5  am
     9     5    14   2
    10     5    19   2
    11     5    39   1
    12     7     6   1
    13     6     9   1
    14     6    12   1
    15    27     7  am
    16    36     8   2
    17     9    15   1
    18    12    10  am
    19    49    11   2
    20    12    25   2
    21    13    28   1
    22    13    47   1
    23    51    13  am
    24    15    26   2
    25    31    16   1
    26    16    49  am
    27    16    50   1
    28    51    17   2
    29    24    18   1
    30    24    20   1
    31    27    21   2
    32    24    22   1
    33    46    23   1
    34    23    51   1
    35    26    29   1
    36    31    27   1
    37    28    40   2
    38    29    34   1
    39    32    30  ar
    40    33    30  ar
    41    43    31   1
    42    40    32  ar
    43    37    33  ar
    44    34    35   1
    45    35    38   1
    46    42    37  ar
    47    38    41   1
    48    39    45   1
    49    39    48   1
    50    42    40  ar
    51    41    44   1
    52    47    42   2
    53    43    46   1
    54    44    49   1
    55    45    48   1
    56    46    50   1
    57     1    52   1
    58     1    53   1
    59     3    54   1
    60     7    55   1
    61     9    56   1
    62    10    57   1
    63    15    58   1
    64    18    59   1
    65    18    60   1
    66    18    61   1
    67    20    62   1
    68    20    63   1
    69    20    64   1
    70    22    65   1
    71    22    66   1
    72    22    67   1
    73    26    68   1
    74    28    69   1
    75    29    70   1
    76    29    71   1
    77    30    72   1
    78    31    73   1
    79    32    74   1
    80    33    75   1
    81    34    76   1
    82    34    77   1
    83    35    78   1
    84    35    79   1
    85    38    80   1
    86    38    81   1
    87    39    82   1
    88    41    83   1
    89    41    84   1
    90    43    85   1
    91    43    86   1
    92    44    87   1
    93    45    88   1
    94    45    89   1
    95    46    90   1
    96    47    91   1
    97    48    92   1
    98    48    93   1
    99    50    94   1
   100    50    95   1
@<TRIPOS>SUBSTRUCTURE
     1  TSV      1

