@<TRIPOS>MOLECULE
3su2_ligand_010
    95   100
SMALL
GAST_HUCK
****
This file was generated by PARSER (from files_GN.cpp)

@<TRIPOS>ATOM
      1 C1        -12.6849   -6.5665   17.5242 C.3         1 TSV      -0.0069
      2 F1        -18.9952  -16.5844   11.2832 F           1 TSV      -0.1836
      3 N1        -19.2326   -7.1021   13.8577 N.am        1 TSV      -0.2412
      4 O1        -21.1191   -8.2426   14.6262 O.3         1 TSV      -0.2580
      5 S1        -10.0185   -6.0985   13.1644 S.o2        1 TSV       0.0645
      6 C2        -12.7167   -6.8388   16.0006 C.3         1 TSV       0.1453
      7 N2        -13.4987   -7.9655   15.6022 N.am        1 TSV      -0.2722
      8 O2        -19.4464   -9.4109   13.4364 O.2         1 TSV      -0.3774
      9 C3        -13.5637   -5.6915   16.6145 C.3         1 TSV       0.0105
     10 N3        -11.3670   -6.0716   14.1752 N.am        1 TSV      -0.1550
     11 O3        -16.6726   -7.2393   15.0302 O.2         1 TSV      -0.3942
     12 C4        -11.4285   -6.6593   15.3601 C.2         1 TSV       0.2463
     13 N4        -17.7460  -13.3134   13.7903 N.am        1 TSV      -0.2075
     14 O4        -10.1991   -4.8873   12.1522 O.2         1 TSV      -0.1503
     15 C5        -13.1965   -4.3021   16.4027 C.2         1 TSV      -0.0942
     16 N5        -16.1448   -8.6613   13.4316 N.am        1 TSV      -0.2469
     17 O5        -16.9449  -11.3805   14.8462 O.2         1 TSV      -0.3166
     18 C6        -22.3707   -9.1166   16.4868 C.3         1 TSV      -0.0320
     19 O6        -10.0329   -7.4329   12.2962 O.2         1 TSV      -0.1503
     20 C7        -23.3956   -8.8897   14.1618 C.3         1 TSV      -0.0320
     21 O7        -13.6311   -7.4302   13.4483 O.2         1 TSV      -0.3947
     22 C8        -21.6961  -10.7212   14.6415 C.3         1 TSV      -0.0320
     23 O8        -16.4112  -11.7848   12.5918 O.3         1 TSV      -0.2338
     24 C9        -22.1087   -9.2508   14.9599 C.3         1 TSV       0.0905
     25 O9        -10.4487   -7.1833   15.8812 O.2         1 TSV      -0.3402
     26 C10       -13.8358   -3.4699   15.5626 C.2         1 TSV      -0.0985
     27 C11       -13.9689   -8.1672   14.3744 C.2         1 TSV       0.2014
     28 C12       -18.3522  -13.8194   14.8913 C.2         1 TSV       0.0391
     29 C13       -14.9597   -3.7821   14.6888 C.3         1 TSV      -0.0365
     30 C14       -20.1820  -17.1095   14.6919 C.ar        1 TSV      -0.0639
     31 C15       -14.9915   -9.1905   14.1391 C.3         1 TSV       0.1363
     32 C16       -19.6842  -15.9506   15.3279 C.ar        1 TSV      -0.0660
     33 C17       -19.9504  -17.3238   13.3129 C.ar        1 TSV      -0.0284
     34 C18       -14.6506   -3.4702   13.2001 C.3         1 TSV      -0.0464
     35 C19       -15.8479   -3.6736   12.2283 C.3         1 TSV      -0.0513
     36 C20       -19.9245   -8.2630   13.9783 C.2         1 TSV       0.3223
     37 C21       -19.2110  -16.3877   12.5558 C.ar        1 TSV       0.1323
     38 C22       -16.4037   -5.1274   12.1226 C.3         1 TSV      -0.0487
     39 C23        -8.4475   -5.8263   14.0199 C.3         1 TSV       0.1004
     40 C24       -18.9550  -15.0256   14.5603 C.ar        1 TSV      -0.0325
     41 C25       -17.6479   -5.4220   13.0172 C.3         1 TSV      -0.0124
     42 C26       -18.7153  -15.2412   13.2068 C.ar        1 TSV       0.0028
     43 C27       -14.4612  -10.3664   13.2737 C.3         1 TSV       0.0206
     44 C28       -17.9727   -6.9416   13.1786 C.3         1 TSV       0.1330
     45 C29        -7.6944   -7.0437   14.5751 C.3         1 TSV      -0.0268
     46 C30       -15.5849  -10.6478   12.2585 C.3         1 TSV       0.1158
     47 C31       -17.9601  -14.1623   12.7575 C.2         1 TSV       0.0402
     48 C32        -7.1686   -6.3272   13.3205 C.3         1 TSV      -0.0268
     49 C33       -16.8922   -7.6415   13.8947 C.2         1 TSV       0.2064
     50 C34       -16.3546   -9.3167   12.1758 C.3         1 TSV       0.0677
     51 C35       -17.0395  -12.1577   13.7427 C.2         1 TSV       0.4317
     52 H1        -11.8039   -6.0722   17.9450 H           1 TSV       0.0300
     53 H2        -13.2318   -7.2664   18.1584 H           1 TSV       0.0300
     54 H3        -19.6436   -6.3066   14.2394 H           1 TSV       0.1899
     55 H4        -13.7323   -8.6008   16.2962 H           1 TSV       0.1841
     56 H5        -14.6243   -5.8953   16.7906 H           1 TSV       0.0435
     57 H6        -12.1891   -5.6952   13.8166 H           1 TSV       0.2148
     58 H7        -12.4407   -3.9284   16.9353 H           1 TSV       0.0452
     59 H8        -23.1164   -9.8391   16.8218 H           1 TSV       0.0260
     60 H9        -22.7372   -8.1190   16.7271 H           1 TSV       0.0260
     61 H10       -21.4487   -9.2851   17.0432 H           1 TSV       0.0260
     62 H11       -24.2106   -9.5785   14.4059 H           1 TSV       0.0260
     63 H12       -23.2024   -8.9477   13.0874 H           1 TSV       0.0260
     64 H13       -23.7225   -7.8716   14.3938 H           1 TSV       0.0260
     65 H14       -22.4692  -11.4218   14.9707 H           1 TSV       0.0260
     66 H15       -20.7722  -10.9777   15.1568 H           1 TSV       0.0260
     67 H16       -21.5483  -10.8615   13.5704 H           1 TSV       0.0260
     68 H17       -13.5245   -2.5270   15.5483 H           1 TSV       0.0450
     69 H18       -18.3563  -13.4033   15.8261 H           1 TSV       0.0373
     70 H19       -15.8123   -3.1802   15.0138 H           1 TSV       0.0388
     71 H20       -15.2408   -4.8334   14.7655 H           1 TSV       0.0388
     72 H21       -20.7125  -17.7965   15.2311 H           1 TSV       0.0607
     73 H22       -15.3318   -9.5993   15.1021 H           1 TSV       0.0803
     74 H23       -19.8490  -15.7915   16.3241 H           1 TSV       0.0580
     75 H24       -20.3201  -18.1657   12.8649 H           1 TSV       0.0604
     76 H25       -13.8176   -4.0980   12.8719 H           1 TSV       0.0285
     77 H26       -14.3284   -2.4256   13.1159 H           1 TSV       0.0285
     78 H27       -15.5000   -3.3725   11.2356 H           1 TSV       0.0267
     79 H28       -16.6527   -2.9874   12.5018 H           1 TSV       0.0267
     80 H29       -15.5964   -5.8249   12.3497 H           1 TSV       0.0267
     81 H30       -16.6937   -5.3143   11.0843 H           1 TSV       0.0267
     82 H31        -8.3246   -4.9116   14.5993 H           1 TSV       0.0559
     83 H32       -18.5121   -4.9280   12.5634 H           1 TSV       0.0312
     84 H33       -17.5168   -4.9783   14.0055 H           1 TSV       0.0312
     85 H34       -14.2456  -11.2463   13.8840 H           1 TSV       0.0342
     86 H35       -13.5470  -10.0980   12.7298 H           1 TSV       0.0342
     87 H36       -18.1025   -7.3368   12.1713 H           1 TSV       0.0799
     88 H37        -8.1448   -8.0229   14.4039 H           1 TSV       0.0285
     89 H38        -7.1372   -6.8619   15.4961 H           1 TSV       0.0285
     90 H39       -15.1525  -10.8741   11.2806 H           1 TSV       0.0673
     91 H40       -17.6242  -14.0441   11.7970 H           1 TSV       0.0367
     92 H41        -6.2750   -5.7208   13.4699 H           1 TSV       0.0285
     93 H42        -7.2865   -6.8830   12.3880 H           1 TSV       0.0285
     94 H43       -15.9535   -8.6891   11.3758 H           1 TSV       0.0553
     95 H44       -17.4053   -9.5305   11.9720 H           1 TSV       0.0553
@<TRIPOS>BOND
     1     6     1   1
     2     9     1   1
     3    37     2   1
     4     3    36  am
     5    44     3   1
     6     4    24   1
     7    36     4   1
     8    10     5  am
     9     5    14   2
    10     5    19   2
    11     5    39   1
    12     7     6   1
    13     6     9   1
    14     6    12   1
    15    27     7  am
    16    36     8   2
    17     9    15   1
    18    12    10  am
    19    49    11   2
    20    12    25   2
    21    13    28   1
    22    13    47   1
    23    51    13  am
    24    15    26   2
    25    31    16   1
    26    16    49  am
    27    16    50   1
    28    51    17   2
    29    24    18   1
    30    24    20   1
    31    27    21   2
    32    24    22   1
    33    46    23   1
    34    23    51   1
    35    26    29   1
    36    31    27   1
    37    28    40   2
    38    29    34   1
    39    32    30  ar
    40    33    30  ar
    41    43    31   1
    42    40    32  ar
    43    37    33  ar
    44    34    35   1
    45    35    38   1
    46    42    37  ar
    47    38    41   1
    48    39    45   1
    49    39    48   1
    50    42    40  ar
    51    41    44   1
    52    47    42   2
    53    43    46   1
    54    44    49   1
    55    45    48   1
    56    46    50   1
    57     1    52   1
    58     1    53   1
    59     3    54   1
    60     7    55   1
    61     9    56   1
    62    10    57   1
    63    15    58   1
    64    18    59   1
    65    18    60   1
    66    18    61   1
    67    20    62   1
    68    20    63   1
    69    20    64   1
    70    22    65   1
    71    22    66   1
    72    22    67   1
    73    26    68   1
    74    28    69   1
    75    29    70   1
    76    29    71   1
    77    30    72   1
    78    31    73   1
    79    32    74   1
    80    33    75   1
    81    34    76   1
    82    34    77   1
    83    35    78   1
    84    35    79   1
    85    38    80   1
    86    38    81   1
    87    39    82   1
    88    41    83   1
    89    41    84   1
    90    43    85   1
    91    43    86   1
    92    44    87   1
    93    45    88   1
    94    45    89   1
    95    46    90   1
    96    47    91   1
    97    48    92   1
    98    48    93   1
    99    50    94   1
   100    50    95   1
@<TRIPOS>SUBSTRUCTURE
     1  TSV      1

