@<TRIPOS>MOLECULE
3su2_ligand_018
    95   100
SMALL
GAST_HUCK
****
This file was generated by PARSER (from files_GN.cpp)

@<TRIPOS>ATOM
      1 C1        -16.9510  -12.4787   12.2194 C.3         1 TSV      -0.0069
      2 F1         -8.9395   -4.8514    9.9152 F           1 TSV      -0.1836
      3 N1        -16.6123   -5.3751   10.5043 N.am        1 TSV      -0.2412
      4 O1        -15.4439   -4.8735    8.5810 O.3         1 TSV      -0.2580
      5 S1        -18.8879  -12.2714   16.7890 S.o2        1 TSV       0.0645
      6 C2        -16.8929  -11.4897   13.4059 C.3         1 TSV       0.1453
      7 N2        -15.8031  -10.5678   13.3650 N.am        1 TSV      -0.2722
      8 O2        -14.2500   -5.5242   10.5148 O.2         1 TSV      -0.3774
      9 C3        -17.9120  -11.2823   12.2532 C.3         1 TSV       0.0105
     10 N3        -18.2538  -11.6105   15.3733 N.am        1 TSV      -0.1550
     11 O3        -16.3689   -7.9657   11.5214 O.2         1 TSV      -0.3942
     12 C4        -17.2419  -12.1010   14.6802 C.2         1 TSV       0.2463
     13 N4        -10.0012   -6.4762   13.7647 N.am        1 TSV      -0.2075
     14 O4        -17.7262  -12.7702   17.7502 O.2         1 TSV      -0.1503
     15 C5        -19.3302  -11.4886   12.4991 C.2         1 TSV      -0.0942
     16 N5        -15.2660   -7.1416   13.2602 N.am        1 TSV      -0.2469
     17 O5        -10.9180   -7.2681   15.7789 O.2         1 TSV      -0.3166
     18 C6        -13.2704   -3.7755    8.0939 C.3         1 TSV      -0.0320
     19 O6        -19.8567  -13.4827   16.4300 O.2         1 TSV      -0.1503
     20 C7        -13.8260   -6.1239    7.2246 C.3         1 TSV      -0.0320
     21 O7        -16.6873   -9.0842   14.7647 O.2         1 TSV      -0.3947
     22 C8        -15.1024   -4.0994    6.3579 C.3         1 TSV      -0.0320
     23 O8        -12.3367   -6.4029   14.1266 O.3         1 TSV      -0.2338
     24 C9        -14.4012   -4.7253    7.5971 C.3         1 TSV       0.0905
     25 O9        -16.5608  -13.0303   15.0893 O.2         1 TSV      -0.3402
     26 C10       -20.2283  -10.5017   12.6722 C.2         1 TSV      -0.0985
     27 C11       -15.7895   -9.4002   13.9925 C.2         1 TSV       0.2014
     28 C12        -8.7203   -6.7886   14.0732 C.2         1 TSV       0.0391
     29 C13       -19.9851   -9.0663   12.5831 C.3         1 TSV      -0.0365
     30 C14        -5.9528   -6.0429   11.6327 C.ar        1 TSV      -0.0639
     31 C15       -14.7483   -8.4177   13.7007 C.3         1 TSV       0.1363
     32 C16        -6.5116   -6.5251   12.8333 C.ar        1 TSV      -0.0660
     33 C17        -6.7789   -5.4802   10.6336 C.ar        1 TSV      -0.0284
     34 C18       -20.3758   -8.2952   13.8714 C.3         1 TSV      -0.0464
     35 C19       -20.2342   -6.7460   13.7739 C.3         1 TSV      -0.0513
     36 C20       -15.4171   -5.2466    9.8870 C.2         1 TSV       0.3223
     37 C21        -8.1747   -5.3756   10.8338 C.ar        1 TSV       0.1323
     38 C22       -18.7908   -6.1917   13.5802 C.3         1 TSV      -0.0487
     39 C23       -19.7445  -10.9714   17.7090 C.3         1 TSV       0.1004
     40 C24        -7.9002   -6.4135   13.0186 C.ar        1 TSV      -0.0325
     41 C25       -18.3768   -5.9239   12.1000 C.3         1 TSV      -0.0124
     42 C26        -8.7175   -5.8498   12.0429 C.ar        1 TSV       0.0028
     43 C27       -13.9019   -8.1185   14.9618 C.3         1 TSV       0.0206
     44 C28       -16.8377   -5.7573   11.8722 C.3         1 TSV       0.1330
     45 C29       -20.9638  -10.3240   17.0366 C.3         1 TSV      -0.0268
     46 C30       -13.5643   -6.6238   14.8433 C.3         1 TSV       0.1158
     47 C31       -10.0183   -5.9022   12.5377 C.2         1 TSV       0.0402
     48 C32       -21.1566  -11.2519   18.2428 C.3         1 TSV      -0.0268
     49 C33       -16.1188   -6.9937   12.2281 C.2         1 TSV       0.2064
     50 C34       -14.7612   -6.0591   14.0534 C.3         1 TSV       0.0677
     51 C35       -11.0804   -6.7106   14.5544 C.2         1 TSV       0.4317
     52 H1        -17.4073  -13.4581   12.3853 H           1 TSV       0.0300
     53 H2        -16.1450  -12.4022   11.4861 H           1 TSV       0.0300
     54 H3        -17.3977   -5.1948    9.9644 H           1 TSV       0.1899
     55 H4        -15.0812  -10.7555   12.7437 H           1 TSV       0.1841
     56 H5        -17.6443  -10.5644   11.4729 H           1 TSV       0.0435
     57 H6        -18.7267  -10.8516   15.0001 H           1 TSV       0.2148
     58 H7        -19.6570  -12.4260   12.5581 H           1 TSV       0.0452
     59 H8        -12.5699   -3.5576    7.2848 H           1 TSV       0.0260
     60 H9        -12.7080   -4.2291    8.9093 H           1 TSV       0.0260
     61 H10       -13.6929   -2.8357    8.4501 H           1 TSV       0.0260
     62 H11       -13.0953   -6.0365    6.4178 H           1 TSV       0.0260
     63 H12       -14.6262   -6.7911    6.8962 H           1 TSV       0.0260
     64 H13       -13.3341   -6.5825    8.0846 H           1 TSV       0.0260
     65 H14       -14.3960   -3.9702    5.5352 H           1 TSV       0.0260
     66 H15       -15.5194   -3.1225    6.6128 H           1 TSV       0.0260
     67 H16       -15.9190   -4.7388    6.0161 H           1 TSV       0.0260
     68 H17       -21.1682  -10.7784   12.8467 H           1 TSV       0.0450
     69 H18        -8.3934   -7.2401   14.9311 H           1 TSV       0.0373
     70 H19       -20.5769   -8.6794   11.7483 H           1 TSV       0.0388
     71 H20       -18.9404   -8.8570   12.3740 H           1 TSV       0.0388
     72 H21        -4.9425   -6.0996   11.4897 H           1 TSV       0.0607
     73 H22       -14.0796   -8.7936   12.9152 H           1 TSV       0.0803
     74 H23        -5.9222   -6.9490   13.5505 H           1 TSV       0.0580
     75 H24        -6.3591   -5.1484    9.7612 H           1 TSV       0.0604
     76 H25       -19.7649   -8.6578   14.7028 H           1 TSV       0.0285
     77 H26       -21.4207   -8.5186   14.1128 H           1 TSV       0.0285
     78 H27       -20.6152   -6.3391   14.7144 H           1 TSV       0.0267
     79 H28       -20.8879   -6.3720   12.9812 H           1 TSV       0.0267
     80 H29       -18.0941   -6.8732   14.0627 H           1 TSV       0.0267
     81 H30       -18.7137   -5.2360   14.1133 H           1 TSV       0.0267
     82 H31       -19.1425  -10.2744   18.2981 H           1 TSV       0.0559
     83 H32       -18.8790   -5.0085   11.7742 H           1 TSV       0.0312
     84 H33       -18.7405   -6.7248   11.4580 H           1 TSV       0.0312
     85 H34       -13.0105   -8.7488   14.9946 H           1 TSV       0.0342
     86 H35       -14.4646   -8.2745   15.8866 H           1 TSV       0.0342
     87 H36       -16.5199   -4.9140   12.4827 H           1 TSV       0.0799
     88 H37       -21.2776  -10.7372   16.0754 H           1 TSV       0.0285
     89 H38       -21.1130   -9.2613   17.2366 H           1 TSV       0.0285
     90 H39       -13.5019   -6.1444   15.8251 H           1 TSV       0.0673
     91 H40       -10.8444   -5.5634   12.0414 H           1 TSV       0.0367
     92 H41       -21.4339  -10.7498   19.1697 H           1 TSV       0.0285
     93 H42       -21.6121  -12.2140   18.0028 H           1 TSV       0.0285
     94 H43       -15.5436   -5.7114   14.7378 H           1 TSV       0.0553
     95 H44       -14.4236   -5.2188   13.4388 H           1 TSV       0.0553
@<TRIPOS>BOND
     1     6     1   1
     2     9     1   1
     3    37     2   1
     4     3    36  am
     5    44     3   1
     6     4    24   1
     7    36     4   1
     8    10     5  am
     9     5    14   2
    10     5    19   2
    11     5    39   1
    12     7     6   1
    13     6     9   1
    14     6    12   1
    15    27     7  am
    16    36     8   2
    17     9    15   1
    18    12    10  am
    19    49    11   2
    20    12    25   2
    21    13    28   1
    22    13    47   1
    23    51    13  am
    24    15    26   2
    25    31    16   1
    26    16    49  am
    27    16    50   1
    28    51    17   2
    29    24    18   1
    30    24    20   1
    31    27    21   2
    32    24    22   1
    33    46    23   1
    34    23    51   1
    35    26    29   1
    36    31    27   1
    37    28    40   2
    38    29    34   1
    39    32    30  ar
    40    33    30  ar
    41    43    31   1
    42    40    32  ar
    43    37    33  ar
    44    34    35   1
    45    35    38   1
    46    42    37  ar
    47    38    41   1
    48    39    45   1
    49    39    48   1
    50    42    40  ar
    51    41    44   1
    52    47    42   2
    53    43    46   1
    54    44    49   1
    55    45    48   1
    56    46    50   1
    57     1    52   1
    58     1    53   1
    59     3    54   1
    60     7    55   1
    61     9    56   1
    62    10    57   1
    63    15    58   1
    64    18    59   1
    65    18    60   1
    66    18    61   1
    67    20    62   1
    68    20    63   1
    69    20    64   1
    70    22    65   1
    71    22    66   1
    72    22    67   1
    73    26    68   1
    74    28    69   1
    75    29    70   1
    76    29    71   1
    77    30    72   1
    78    31    73   1
    79    32    74   1
    80    33    75   1
    81    34    76   1
    82    34    77   1
    83    35    78   1
    84    35    79   1
    85    38    80   1
    86    38    81   1
    87    39    82   1
    88    41    83   1
    89    41    84   1
    90    43    85   1
    91    43    86   1
    92    44    87   1
    93    45    88   1
    94    45    89   1
    95    46    90   1
    96    47    91   1
    97    48    92   1
    98    48    93   1
    99    50    94   1
   100    50    95   1
@<TRIPOS>SUBSTRUCTURE
     1  TSV      1

