@<TRIPOS>MOLECULE
3su2_ligand_038
    95   100
SMALL
GAST_HUCK
****
This file was generated by PARSER (from files_GN.cpp)

@<TRIPOS>ATOM
      1 C1        -15.3483   -8.5539   12.7200 C.3         1 TSV      -0.0069
      2 F1        -15.0541   -8.5651    1.8479 F           1 TSV      -0.1836
      3 N1        -16.9035   -3.6471    7.4773 N.am        1 TSV      -0.2412
      4 O1        -19.0893   -4.1320    6.8690 O.3         1 TSV      -0.2580
      5 S1        -11.4689   -6.0838   14.8279 S.o2        1 TSV       0.0645
      6 C2        -14.1933   -7.6104   12.3161 C.3         1 TSV       0.1453
      7 N2        -13.8750   -7.5445   10.9228 N.am        1 TSV      -0.2722
      8 O2        -18.4076   -4.5378    9.0809 O.2         1 TSV      -0.3774
      9 C3        -15.6000   -7.0425   12.6446 C.3         1 TSV       0.0105
     10 N3        -12.7117   -6.3667   13.7213 N.am        1 TSV      -0.1550
     11 O3        -15.8465   -5.6072    9.2507 O.2         1 TSV      -0.3942
     12 C4        -13.1036   -7.5481   13.2763 C.2         1 TSV       0.2463
     13 N4        -11.5210   -7.6320    4.1255 N.am        1 TSV      -0.2075
     14 O4        -11.5578   -7.0642   16.0753 O.2         1 TSV      -0.1503
     15 C5        -15.8169   -6.2852   13.8663 C.2         1 TSV      -0.0942
     16 N5        -13.8828   -5.2410    8.3099 N.am        1 TSV      -0.2469
     17 O5         -9.8401   -6.9675    5.6365 O.2         1 TSV      -0.3166
     18 C6        -20.6164   -6.0340    7.3053 C.3         1 TSV      -0.0320
     19 O6        -11.8478   -4.6801   15.4722 O.2         1 TSV      -0.1503
     20 C7        -21.2624   -3.6264    7.9081 C.3         1 TSV      -0.0320
     21 O7        -12.9516   -5.5251   10.9652 O.2         1 TSV      -0.3947
     22 C8        -21.0239   -4.3233    5.4725 C.3         1 TSV      -0.0320
     23 O8        -12.0464   -6.2292    5.9426 O.3         1 TSV      -0.2338
     24 C9        -20.4768   -4.5323    6.9111 C.3         1 TSV       0.0905
     25 O9        -12.5338   -8.5831   13.6037 O.2         1 TSV      -0.3402
     26 C10       -15.9183   -4.9453   13.9255 C.2         1 TSV      -0.0985
     27 C11       -13.3242   -6.4965   10.3201 C.2         1 TSV       0.2014
     28 C12       -10.7060   -8.3292    3.2993 C.2         1 TSV       0.0391
     29 C13       -15.8966   -4.0202   12.8004 C.3         1 TSV      -0.0365
     30 C14       -12.1347  -10.0856    0.2832 C.ar        1 TSV      -0.0639
     31 C15       -13.2550   -6.4244    8.8621 C.3         1 TSV       0.1363
     32 C16       -11.1146   -9.6734    1.1666 C.ar        1 TSV      -0.0660
     33 C17       -13.4764   -9.7087    0.5140 C.ar        1 TSV      -0.0284
     34 C18       -14.8293   -2.9000   12.9197 C.3         1 TSV      -0.0464
     35 C19       -14.9203   -1.7961   11.8214 C.3         1 TSV      -0.0513
     36 C20       -18.1243   -4.1135    7.8277 C.2         1 TSV       0.3223
     37 C21       -13.8155   -8.9126    1.6305 C.ar        1 TSV       0.1323
     38 C22       -14.6707   -2.2680   10.3572 C.3         1 TSV      -0.0487
     39 C23        -9.7673   -5.9315   14.2253 C.3         1 TSV       0.1004
     40 C24       -11.4652   -8.8813    2.2736 C.ar        1 TSV      -0.0325
     41 C25       -15.9634   -2.6638    9.5756 C.3         1 TSV      -0.0124
     42 C26       -12.7866   -8.5050    2.5006 C.ar        1 TSV       0.0028
     43 C27       -11.7846   -6.3806    8.3778 C.3         1 TSV       0.0206
     44 C28       -15.7252   -3.5310    8.2977 C.3         1 TSV       0.1330
     45 C29        -9.2669   -6.9305   13.1705 C.3         1 TSV      -0.0268
     46 C30       -11.8185   -5.4705    7.1403 C.3         1 TSV       0.1158
     47 C31       -12.7884   -7.7286    3.6551 C.2         1 TSV       0.0402
     48 C32        -9.5576   -5.4726   12.7716 C.3         1 TSV      -0.0268
     49 C33       -15.1370   -4.8490    8.6003 C.2         1 TSV       0.2064
     50 C34       -13.0120   -4.5395    7.4149 C.3         1 TSV       0.0677
     51 C35       -11.1362   -6.9519    5.2344 C.2         1 TSV       0.4317
     52 H1        -15.3365   -8.9815   13.7265 H           1 TSV       0.0300
     53 H2        -15.8088   -9.1358   11.9182 H           1 TSV       0.0300
     54 H3        -16.8185   -3.3380    6.5598 H           1 TSV       0.1899
     55 H4        -14.1847   -8.2740   10.3641 H           1 TSV       0.1841
     56 H5        -16.2550   -6.8165   11.7993 H           1 TSV       0.0435
     57 H6        -13.1896   -5.5859   13.4020 H           1 TSV       0.2148
     58 H7        -15.8963   -6.7916   14.7168 H           1 TSV       0.0452
     59 H8        -21.6518   -6.3670    7.1943 H           1 TSV       0.0260
     60 H9        -20.3208   -6.2003    8.3424 H           1 TSV       0.0260
     61 H10       -19.9839   -6.6528    6.6652 H           1 TSV       0.0260
     62 H11       -22.3285   -3.8682    7.8965 H           1 TSV       0.0260
     63 H12       -21.1408   -2.5732    7.6405 H           1 TSV       0.0260
     64 H13       -20.8999   -3.7587    8.9299 H           1 TSV       0.0260
     65 H14       -22.0782   -4.6005    5.4123 H           1 TSV       0.0260
     66 H15       -20.4652   -4.9337    4.7617 H           1 TSV       0.0260
     67 H16       -20.9276   -3.2784    5.1746 H           1 TSV       0.0260
     68 H17       -16.0776   -4.5456   14.8226 H           1 TSV       0.0450
     69 H18        -9.6916   -8.4349    3.3922 H           1 TSV       0.0373
     70 H19       -16.8870   -3.5630   12.7410 H           1 TSV       0.0388
     71 H20       -15.7138   -4.5441   11.8653 H           1 TSV       0.0388
     72 H21       -11.9005  -10.6621   -0.5269 H           1 TSV       0.0607
     73 H22       -13.7411   -7.2999    8.4192 H           1 TSV       0.0803
     74 H23       -10.1426   -9.9432    1.0052 H           1 TSV       0.0580
     75 H24       -14.2052  -10.0162   -0.1314 H           1 TSV       0.0604
     76 H25       -13.8317   -3.3504   12.8879 H           1 TSV       0.0285
     77 H26       -14.9361   -2.4121   13.8926 H           1 TSV       0.0285
     78 H27       -14.1674   -1.0415   12.0652 H           1 TSV       0.0267
     79 H28       -15.8882   -1.2939   11.8900 H           1 TSV       0.0267
     80 H29       -13.9572   -3.0928   10.3712 H           1 TSV       0.0267
     81 H30       -14.1952   -1.4546    9.8047 H           1 TSV       0.0267
     82 H31        -9.0052   -5.5737   14.9216 H           1 TSV       0.0559
     83 H32       -16.4754   -1.7406    9.2872 H           1 TSV       0.0312
     84 H33       -16.6389   -3.1955   10.2385 H           1 TSV       0.0312
     85 H34       -11.4118   -7.3808    8.1414 H           1 TSV       0.0342
     86 H35       -11.1168   -5.9315    9.1202 H           1 TSV       0.0342
     87 H36       -15.0365   -2.9460    7.6887 H           1 TSV       0.0799
     88 H37        -9.9818   -7.6729   12.8048 H           1 TSV       0.0285
     89 H38        -8.2071   -7.1937   13.2377 H           1 TSV       0.0285
     90 H39       -10.8989   -4.8858    7.0390 H           1 TSV       0.0673
     91 H40       -13.6245   -7.3097    4.0745 H           1 TSV       0.0367
     92 H41        -8.6759   -4.8485   12.5895 H           1 TSV       0.0285
     93 H42       -10.4515   -5.3184   12.1606 H           1 TSV       0.0285
     94 H43       -12.6713   -3.6146    7.8857 H           1 TSV       0.0553
     95 H44       -13.5093   -4.2984    6.4711 H           1 TSV       0.0553
@<TRIPOS>BOND
     1     6     1   1
     2     9     1   1
     3    37     2   1
     4     3    36  am
     5    44     3   1
     6     4    24   1
     7    36     4   1
     8    10     5  am
     9     5    14   2
    10     5    19   2
    11     5    39   1
    12     7     6   1
    13     6     9   1
    14     6    12   1
    15    27     7  am
    16    36     8   2
    17     9    15   1
    18    12    10  am
    19    49    11   2
    20    12    25   2
    21    13    28   1
    22    13    47   1
    23    51    13  am
    24    15    26   2
    25    31    16   1
    26    16    49  am
    27    16    50   1
    28    51    17   2
    29    24    18   1
    30    24    20   1
    31    27    21   2
    32    24    22   1
    33    46    23   1
    34    23    51   1
    35    26    29   1
    36    31    27   1
    37    28    40   2
    38    29    34   1
    39    32    30  ar
    40    33    30  ar
    41    43    31   1
    42    40    32  ar
    43    37    33  ar
    44    34    35   1
    45    35    38   1
    46    42    37  ar
    47    38    41   1
    48    39    45   1
    49    39    48   1
    50    42    40  ar
    51    41    44   1
    52    47    42   2
    53    43    46   1
    54    44    49   1
    55    45    48   1
    56    46    50   1
    57     1    52   1
    58     1    53   1
    59     3    54   1
    60     7    55   1
    61     9    56   1
    62    10    57   1
    63    15    58   1
    64    18    59   1
    65    18    60   1
    66    18    61   1
    67    20    62   1
    68    20    63   1
    69    20    64   1
    70    22    65   1
    71    22    66   1
    72    22    67   1
    73    26    68   1
    74    28    69   1
    75    29    70   1
    76    29    71   1
    77    30    72   1
    78    31    73   1
    79    32    74   1
    80    33    75   1
    81    34    76   1
    82    34    77   1
    83    35    78   1
    84    35    79   1
    85    38    80   1
    86    38    81   1
    87    39    82   1
    88    41    83   1
    89    41    84   1
    90    43    85   1
    91    43    86   1
    92    44    87   1
    93    45    88   1
    94    45    89   1
    95    46    90   1
    96    47    91   1
    97    48    92   1
    98    48    93   1
    99    50    94   1
   100    50    95   1
@<TRIPOS>SUBSTRUCTURE
     1  TSV      1

