@<TRIPOS>MOLECULE
3su2_ligand_027
    95   100
SMALL
GAST_HUCK
****
This file was generated by PARSER (from files_GN.cpp)

@<TRIPOS>ATOM
      1 C1        -21.5572   -3.7541   10.5097 C.3         1 TSV      -0.0069
      2 F1         -8.8232   -9.4986   10.3008 F           1 TSV      -0.1836
      3 N1        -18.7855  -10.2236   13.5903 N.am        1 TSV      -0.2412
      4 O1        -19.7774  -10.5668   15.6470 O.3         1 TSV      -0.2580
      5 S1        -18.5056   -2.8545    6.8746 S.o2        1 TSV       0.0645
      6 C2        -20.4751   -4.6553    9.8731 C.3         1 TSV       0.1453
      7 N2        -19.3962   -4.9912   10.7514 N.am        1 TSV      -0.2722
      8 O2        -21.0642   -9.6523   13.8891 O.2         1 TSV      -0.3774
      9 C3        -21.8085   -5.2663   10.3745 C.3         1 TSV       0.0105
     10 N3        -19.0627   -3.4994    8.3305 N.am        1 TSV      -0.1550
     11 O3        -19.4793   -7.6679   12.5572 O.2         1 TSV      -0.3942
     12 C4        -20.1635   -4.2108    8.5157 C.2         1 TSV       0.2463
     13 N4        -11.8283   -7.1404   12.3131 N.am        1 TSV      -0.2075
     14 O4        -19.7157   -2.5113    5.9016 O.2         1 TSV      -0.1503
     15 C5        -22.7591   -5.7790    9.4128 C.2         1 TSV      -0.0942
     16 N5        -17.4154   -7.5920   11.7647 N.am        1 TSV      -0.2469
     17 O5        -13.7601   -6.2948   13.3507 O.2         1 TSV      -0.3166
     18 C6        -19.8103  -10.4462   18.0412 C.3         1 TSV      -0.0320
     19 O6        -17.5169   -3.8701    6.1559 O.2         1 TSV      -0.1503
     20 C7        -21.8282   -9.6005   16.7605 C.3         1 TSV      -0.0320
     21 O7        -18.2837   -6.3385    9.3742 O.2         1 TSV      -0.3947
     22 C8        -21.2679  -12.0972   16.7694 C.3         1 TSV      -0.0320
     23 O8        -13.8785   -7.1475   11.1587 O.3         1 TSV      -0.2338
     24 C9        -20.6832  -10.6583   16.7691 C.3         1 TSV       0.0905
     25 O9        -20.8911   -4.5153    7.5768 O.2         1 TSV      -0.3402
     26 C10       -22.8095   -7.0635    9.0128 C.2         1 TSV      -0.0985
     27 C11       -18.3999   -5.8209   10.4790 C.2         1 TSV       0.2014
     28 C12       -10.9597   -6.7179   13.2633 C.2         1 TSV       0.0391
     29 C13       -21.9663   -8.1637    9.4716 C.3         1 TSV      -0.0365
     30 C14        -7.3578   -7.8023   13.1777 C.ar        1 TSV      -0.0639
     31 C15       -17.4538   -6.1666   11.5345 C.3         1 TSV       0.1363
     32 C16        -8.4775   -7.1045   13.6727 C.ar        1 TSV      -0.0660
     33 C17        -7.4757   -8.6255   12.0337 C.ar        1 TSV      -0.0284
     34 C18       -21.1687   -8.8298    8.3189 C.3         1 TSV      -0.0464
     35 C19       -20.4322  -10.1478    8.7023 C.3         1 TSV      -0.0513
     36 C20       -19.8950  -10.1421   14.3599 C.2         1 TSV       0.3223
     37 C21        -8.7104   -8.7336   11.3545 C.ar        1 TSV       0.1323
     38 C22       -19.2688  -10.0127    9.7291 C.3         1 TSV      -0.0487
     39 C23       -17.6621   -1.2769    7.1464 C.3         1 TSV       0.1004
     40 C24        -9.7030   -7.2363   12.9965 C.ar        1 TSV      -0.0325
     41 C25       -19.6626  -10.2644   11.2173 C.3         1 TSV      -0.0124
     42 C26        -9.8203   -8.0224   11.8559 C.ar        1 TSV       0.0028
     43 C27       -16.0033   -5.7318   11.1972 C.3         1 TSV       0.0206
     44 C28       -18.6014   -9.7490   12.2476 C.3         1 TSV       0.1330
     45 C29       -18.1582   -0.3864    8.2968 C.3         1 TSV      -0.0268
     46 C30       -15.2778   -7.0442   10.8401 C.3         1 TSV       0.1158
     47 C31       -11.1423   -7.9203   11.4375 C.2         1 TSV       0.0402
     48 C32       -16.8109   -1.1078    8.4138 C.3         1 TSV      -0.0268
     49 C33       -18.4750   -8.2862   12.2217 C.2         1 TSV       0.2064
     50 C34       -16.1320   -8.1584   11.4723 C.3         1 TSV       0.0677
     51 C35       -13.1529   -6.8602   12.2782 C.2         1 TSV       0.4317
     52 H1        -22.1665   -3.1207    9.8558 H           1 TSV       0.0300
     53 H2        -21.3474   -3.3946   11.5195 H           1 TSV       0.0300
     54 H3        -18.0048  -10.6175   14.0130 H           1 TSV       0.1899
     55 H4        -19.4416   -4.6350   11.6546 H           1 TSV       0.1841
     56 H5        -21.7893   -5.7560   11.3499 H           1 TSV       0.0435
     57 H6        -18.5063   -3.3393    9.1059 H           1 TSV       0.2148
     58 H7        -23.4244   -5.1475    9.0331 H           1 TSV       0.0452
     59 H8        -20.4070  -10.5785   18.9475 H           1 TSV       0.0260
     60 H9        -19.3841   -9.4362   18.0514 H           1 TSV       0.0260
     61 H10       -18.9846  -11.1641   18.0666 H           1 TSV       0.0260
     62 H11       -22.3732   -9.6152   17.7118 H           1 TSV       0.0260
     63 H12       -22.5444   -9.8041   15.9661 H           1 TSV       0.0260
     64 H13       -21.4190   -8.6015   16.6133 H           1 TSV       0.0260
     65 H14       -21.9272  -12.2507   17.6243 H           1 TSV       0.0260
     66 H15       -20.4625  -12.8362   16.8126 H           1 TSV       0.0260
     67 H16       -21.8374  -12.2693   15.8524 H           1 TSV       0.0260
     68 H17       -23.5182   -7.2977    8.3510 H           1 TSV       0.0450
     69 H18       -11.1778   -6.0934   14.0441 H           1 TSV       0.0373
     70 H19       -22.6218   -8.9081    9.9321 H           1 TSV       0.0388
     71 H20       -21.2575   -7.8334   10.2275 H           1 TSV       0.0388
     72 H21        -6.4542   -7.7173   13.6522 H           1 TSV       0.0607
     73 H22       -17.7414   -5.6678   12.4723 H           1 TSV       0.0803
     74 H23        -8.3993   -6.5109   14.5020 H           1 TSV       0.0580
     75 H24        -6.6590   -9.1399   11.6972 H           1 TSV       0.0604
     76 H25       -20.4439   -8.1145    7.9269 H           1 TSV       0.0285
     77 H26       -21.8633   -9.0702    7.5046 H           1 TSV       0.0285
     78 H27       -20.0090  -10.5490    7.7789 H           1 TSV       0.0267
     79 H28       -21.1613  -10.8820    9.0593 H           1 TSV       0.0267
     80 H29       -18.8226   -9.0223    9.6167 H           1 TSV       0.0267
     81 H30       -18.4921  -10.7381    9.4765 H           1 TSV       0.0267
     82 H31       -17.2992   -0.7310    6.2727 H           1 TSV       0.0559
     83 H32       -19.7960  -11.3404   11.3584 H           1 TSV       0.0312
     84 H33       -20.6255   -9.7975   11.4146 H           1 TSV       0.0312
     85 H34       -15.5497   -5.2544   12.0691 H           1 TSV       0.0342
     86 H35       -15.9534   -5.0149   10.3679 H           1 TSV       0.0342
     87 H36       -17.6601  -10.2139   11.9480 H           1 TSV       0.0799
     88 H37       -18.9457   -0.7779    8.9461 H           1 TSV       0.0285
     89 H38       -18.0960    0.6916    8.1298 H           1 TSV       0.0285
     90 H39       -15.3369   -7.1590    9.7516 H           1 TSV       0.0673
     91 H40       -11.5344   -8.4060   10.6242 H           1 TSV       0.0367
     92 H41       -15.9322   -0.4662    8.3216 H           1 TSV       0.0285
     93 H42       -16.7877   -1.9398    9.1210 H           1 TSV       0.0285
     94 H43       -16.2105   -8.9769   10.7509 H           1 TSV       0.0553
     95 H44       -15.6718   -8.5282   12.3895 H           1 TSV       0.0553
@<TRIPOS>BOND
     1     6     1   1
     2     9     1   1
     3    37     2   1
     4     3    36  am
     5    44     3   1
     6     4    24   1
     7    36     4   1
     8    10     5  am
     9     5    14   2
    10     5    19   2
    11     5    39   1
    12     7     6   1
    13     6     9   1
    14     6    12   1
    15    27     7  am
    16    36     8   2
    17     9    15   1
    18    12    10  am
    19    49    11   2
    20    12    25   2
    21    13    28   1
    22    13    47   1
    23    51    13  am
    24    15    26   2
    25    31    16   1
    26    16    49  am
    27    16    50   1
    28    51    17   2
    29    24    18   1
    30    24    20   1
    31    27    21   2
    32    24    22   1
    33    46    23   1
    34    23    51   1
    35    26    29   1
    36    31    27   1
    37    28    40   2
    38    29    34   1
    39    32    30  ar
    40    33    30  ar
    41    43    31   1
    42    40    32  ar
    43    37    33  ar
    44    34    35   1
    45    35    38   1
    46    42    37  ar
    47    38    41   1
    48    39    45   1
    49    39    48   1
    50    42    40  ar
    51    41    44   1
    52    47    42   2
    53    43    46   1
    54    44    49   1
    55    45    48   1
    56    46    50   1
    57     1    52   1
    58     1    53   1
    59     3    54   1
    60     7    55   1
    61     9    56   1
    62    10    57   1
    63    15    58   1
    64    18    59   1
    65    18    60   1
    66    18    61   1
    67    20    62   1
    68    20    63   1
    69    20    64   1
    70    22    65   1
    71    22    66   1
    72    22    67   1
    73    26    68   1
    74    28    69   1
    75    29    70   1
    76    29    71   1
    77    30    72   1
    78    31    73   1
    79    32    74   1
    80    33    75   1
    81    34    76   1
    82    34    77   1
    83    35    78   1
    84    35    79   1
    85    38    80   1
    86    38    81   1
    87    39    82   1
    88    41    83   1
    89    41    84   1
    90    43    85   1
    91    43    86   1
    92    44    87   1
    93    45    88   1
    94    45    89   1
    95    46    90   1
    96    47    91   1
    97    48    92   1
    98    48    93   1
    99    50    94   1
   100    50    95   1
@<TRIPOS>SUBSTRUCTURE
     1  TSV      1

