@<TRIPOS>MOLECULE
3su2_ligand_014
    95   100
SMALL
GAST_HUCK
****
This file was generated by PARSER (from files_GN.cpp)

@<TRIPOS>ATOM
      1 C1        -13.5492   -3.3774    8.2515 C.3         1 TSV      -0.0069
      2 F1         -7.3514  -11.3989    8.3590 F           1 TSV      -0.1836
      3 N1        -11.0763   -6.9957   13.8965 N.am        1 TSV      -0.2412
      4 O1         -8.7777   -7.1411   13.7666 O.3         1 TSV      -0.2580
      5 S1        -18.4892   -4.3157    8.6348 S.o2        1 TSV       0.0645
      6 C2        -14.4856   -4.4777    8.8011 C.3         1 TSV       0.1453
      7 N2        -13.8879   -5.7745    8.9008 N.am        1 TSV      -0.2722
      8 O2        -10.1043   -8.2129   12.1214 O.2         1 TSV      -0.3774
      9 C3        -13.8575   -3.4266    9.7558 C.3         1 TSV       0.0105
     10 N3        -16.8613   -4.3470    9.0695 N.am        1 TSV      -0.1550
     11 O3        -12.2758   -6.1083   11.5630 O.2         1 TSV      -0.3942
     12 C4        -15.8272   -4.3874    8.2471 C.2         1 TSV       0.2463
     13 N4        -11.1645  -12.7720    9.8022 N.am        1 TSV      -0.2075
     14 O4        -18.7047   -4.7662    7.1224 O.2         1 TSV      -0.1503
     15 C5        -14.6957   -2.3984   10.3523 C.2         1 TSV      -0.0942
     16 N5        -13.2312   -8.0988   11.3259 N.am        1 TSV      -0.2469
     17 O5        -13.3583  -13.1550   10.5516 O.2         1 TSV      -0.3166
     18 C6         -6.7334   -8.1481   14.5440 C.3         1 TSV      -0.0320
     19 O6        -19.0636   -2.8340    8.7544 O.2         1 TSV      -0.1503
     20 C7         -7.2104   -8.1209   12.0383 C.3         1 TSV      -0.0320
     21 O7        -15.4225   -6.6564   10.2438 O.2         1 TSV      -0.3947
     22 C8         -6.7827   -5.9316   13.2556 C.3         1 TSV      -0.0320
     23 O8        -12.6249  -10.9568   10.1942 O.3         1 TSV      -0.2338
     24 C9         -7.4011   -7.3549   13.3835 C.3         1 TSV       0.0905
     25 O9        -15.9535   -4.4446    7.0305 O.2         1 TSV      -0.3402
     26 C10       -15.0989   -2.3812   11.6362 C.2         1 TSV      -0.0985
     27 C11       -14.3541   -6.7617    9.6514 C.2         1 TSV       0.2014
     28 C12       -10.8073  -14.0765    9.7509 C.2         1 TSV       0.0391
     29 C13       -14.7564   -3.3388   12.6820 C.3         1 TSV      -0.0365
     30 C14        -7.3565  -15.0383    8.5744 C.ar        1 TSV      -0.0639
     31 C15       -13.5233   -7.9341    9.9186 C.3         1 TSV       0.1363
     32 C16        -8.6620  -15.2728    9.0565 C.ar        1 TSV      -0.0660
     33 C17        -6.9075  -13.7180    8.3408 C.ar        1 TSV      -0.0284
     34 C18       -15.9973   -4.0835   13.2432 C.3         1 TSV      -0.0464
     35 C19       -15.7090   -5.0512   14.4297 C.3         1 TSV      -0.0513
     36 C20        -9.9866   -7.4739   13.2487 C.2         1 TSV       0.3223
     37 C21        -7.7568  -12.6190    8.5876 C.ar        1 TSV       0.1323
     38 C22       -14.8752   -6.3213   14.0829 C.3         1 TSV      -0.0487
     39 C23       -19.4319   -5.5140    9.6032 C.3         1 TSV       0.1004
     40 C24        -9.4973  -14.1687    9.2984 C.ar        1 TSV      -0.0325
     41 C25       -13.3340   -6.1731   14.3027 C.3         1 TSV      -0.0124
     42 C26        -9.0536  -12.8682    9.0716 C.ar        1 TSV       0.0028
     43 C27       -14.2072   -9.2500    9.4701 C.3         1 TSV       0.0206
     44 C28       -12.4521   -7.2197   13.5472 C.3         1 TSV       0.1330
     45 C29       -19.1863   -5.5109   11.1245 C.3         1 TSV      -0.0268
     46 C30       -13.8342  -10.2668   10.5565 C.3         1 TSV       0.1158
     47 C31       -10.1100  -12.0224    9.3994 C.2         1 TSV       0.0402
     48 C32       -20.5303   -5.0241   10.5526 C.3         1 TSV      -0.0268
     49 C33       -12.6571   -7.1469   12.0901 C.2         1 TSV       0.2064
     50 C34       -13.6037   -9.3986   11.8045 C.3         1 TSV       0.0677
     51 C35       -12.3768  -12.2956   10.1833 C.2         1 TSV       0.4317
     52 H1        -13.9952   -2.5412    7.7047 H           1 TSV       0.0300
     53 H2        -12.5461   -3.7010    7.9626 H           1 TSV       0.0300
     54 H3        -10.9063   -6.4611   14.6884 H           1 TSV       0.1899
     55 H4        -13.0147   -5.8976    8.4968 H           1 TSV       0.1841
     56 H5        -12.9573   -3.7139   10.3052 H           1 TSV       0.0435
     57 H6        -16.6683   -4.3266   10.0204 H           1 TSV       0.2148
     58 H7        -15.0084   -1.6597    9.7623 H           1 TSV       0.0452
     59 H8         -5.6712   -8.3143   14.3408 H           1 TSV       0.0260
     60 H9         -7.2204   -9.1220   14.6555 H           1 TSV       0.0260
     61 H10        -6.8267   -7.6099   15.4939 H           1 TSV       0.0260
     62 H11        -6.1550   -8.1377   11.7474 H           1 TSV       0.0260
     63 H12        -7.7853   -7.6293   11.2488 H           1 TSV       0.0260
     64 H13        -7.5509   -9.1552   12.1290 H           1 TSV       0.0260
     65 H14        -5.7191   -5.9866   13.0017 H           1 TSV       0.0260
     66 H15        -6.8868   -5.3780   14.1954 H           1 TSV       0.0260
     67 H16        -7.2959   -5.3666   12.4720 H           1 TSV       0.0260
     68 H17       -15.6824   -1.6216   11.9083 H           1 TSV       0.0450
     69 H18       -11.3967  -14.8779    9.9937 H           1 TSV       0.0373
     70 H19       -14.2604   -2.7911   13.4902 H           1 TSV       0.0388
     71 H20       -14.0584   -4.0838   12.3093 H           1 TSV       0.0388
     72 H21        -6.7356  -15.8265    8.3892 H           1 TSV       0.0607
     73 H22       -12.5634   -7.8521    9.3964 H           1 TSV       0.0803
     74 H23        -8.9938  -16.2248    9.2228 H           1 TSV       0.0580
     75 H24        -5.9613  -13.5635    7.9862 H           1 TSV       0.0604
     76 H25       -16.4702   -4.6456   12.4332 H           1 TSV       0.0285
     77 H26       -16.7205   -3.3422   13.5910 H           1 TSV       0.0285
     78 H27       -16.6814   -5.3921   14.7950 H           1 TSV       0.0267
     79 H28       -15.2381   -4.5032   15.2515 H           1 TSV       0.0267
     80 H29       -15.0957   -6.6047   13.0515 H           1 TSV       0.0267
     81 H30       -15.2156   -7.1504   14.7135 H           1 TSV       0.0267
     82 H31       -19.5525   -6.5213    9.1977 H           1 TSV       0.0559
     83 H32       -13.1428   -6.2729   15.3780 H           1 TSV       0.0312
     84 H33       -13.0016   -5.1710   14.0163 H           1 TSV       0.0312
     85 H34       -13.8640   -9.5618    8.4803 H           1 TSV       0.0342
     86 H35       -15.2958   -9.1549    9.4391 H           1 TSV       0.0342
     87 H36       -12.7213   -8.1957   13.9505 H           1 TSV       0.0799
     88 H37       -18.5520   -4.7177   11.5407 H           1 TSV       0.0285
     89 H38       -19.2302   -6.4842   11.6299 H           1 TSV       0.0285
     90 H39       -14.6528  -10.9713   10.7220 H           1 TSV       0.0673
     91 H40       -10.0846  -11.0033    9.3318 H           1 TSV       0.0367
     92 H41       -21.3717   -5.7046   10.7075 H           1 TSV       0.0285
     93 H42       -20.6923   -3.9457   10.6313 H           1 TSV       0.0285
     94 H43       -14.5218   -9.3285   12.3953 H           1 TSV       0.0553
     95 H44       -12.8217   -9.8661   12.4099 H           1 TSV       0.0553
@<TRIPOS>BOND
     1     6     1   1
     2     9     1   1
     3    37     2   1
     4     3    36  am
     5    44     3   1
     6     4    24   1
     7    36     4   1
     8    10     5  am
     9     5    14   2
    10     5    19   2
    11     5    39   1
    12     7     6   1
    13     6     9   1
    14     6    12   1
    15    27     7  am
    16    36     8   2
    17     9    15   1
    18    12    10  am
    19    49    11   2
    20    12    25   2
    21    13    28   1
    22    13    47   1
    23    51    13  am
    24    15    26   2
    25    31    16   1
    26    16    49  am
    27    16    50   1
    28    51    17   2
    29    24    18   1
    30    24    20   1
    31    27    21   2
    32    24    22   1
    33    46    23   1
    34    23    51   1
    35    26    29   1
    36    31    27   1
    37    28    40   2
    38    29    34   1
    39    32    30  ar
    40    33    30  ar
    41    43    31   1
    42    40    32  ar
    43    37    33  ar
    44    34    35   1
    45    35    38   1
    46    42    37  ar
    47    38    41   1
    48    39    45   1
    49    39    48   1
    50    42    40  ar
    51    41    44   1
    52    47    42   2
    53    43    46   1
    54    44    49   1
    55    45    48   1
    56    46    50   1
    57     1    52   1
    58     1    53   1
    59     3    54   1
    60     7    55   1
    61     9    56   1
    62    10    57   1
    63    15    58   1
    64    18    59   1
    65    18    60   1
    66    18    61   1
    67    20    62   1
    68    20    63   1
    69    20    64   1
    70    22    65   1
    71    22    66   1
    72    22    67   1
    73    26    68   1
    74    28    69   1
    75    29    70   1
    76    29    71   1
    77    30    72   1
    78    31    73   1
    79    32    74   1
    80    33    75   1
    81    34    76   1
    82    34    77   1
    83    35    78   1
    84    35    79   1
    85    38    80   1
    86    38    81   1
    87    39    82   1
    88    41    83   1
    89    41    84   1
    90    43    85   1
    91    43    86   1
    92    44    87   1
    93    45    88   1
    94    45    89   1
    95    46    90   1
    96    47    91   1
    97    48    92   1
    98    48    93   1
    99    50    94   1
   100    50    95   1
@<TRIPOS>SUBSTRUCTURE
     1  TSV      1

