@<TRIPOS>MOLECULE
3su2_ligand_016
    95   100
SMALL
GAST_HUCK
****
This file was generated by PARSER (from files_GN.cpp)

@<TRIPOS>ATOM
      1 C1        -15.7748  -10.4946    8.9524 C.3         1 TSV      -0.0069
      2 F1         -5.7566   -2.0855   10.6455 F           1 TSV      -0.1836
      3 N1        -14.5941   -3.3850   10.5191 N.am        1 TSV      -0.2412
      4 O1        -15.0081   -1.3683    9.4937 O.3         1 TSV      -0.2580
      5 S1        -15.6466  -12.1549   13.7591 S.o2        1 TSV       0.0645
      6 C2        -15.1904  -10.1334   10.3370 C.3         1 TSV       0.1453
      7 N2        -14.0275   -9.3017   10.3064 N.am        1 TSV      -0.2722
      8 O2        -15.0422   -1.4887   11.8604 O.2         1 TSV      -0.3774
      9 C3        -16.4611   -9.4213    9.8089 C.3         1 TSV       0.0105
     10 N3        -15.6705  -11.0162   12.5143 N.am        1 TSV      -0.1550
     11 O3        -14.6252   -6.1114   10.1220 O.2         1 TSV      -0.3942
     12 C4        -15.2231  -11.2318   11.2881 C.2         1 TSV       0.2463
     13 N4         -8.3044   -5.3921    9.5761 N.am        1 TSV      -0.2075
     14 O4        -16.3373  -13.5029   13.2761 O.2         1 TSV      -0.1503
     15 C5        -17.7506   -9.7074   10.4137 C.2         1 TSV      -0.0942
     16 N5        -12.8828   -6.2338   11.4818 N.am        1 TSV      -0.2469
     17 O5         -9.8326   -7.1504    9.3328 O.2         1 TSV      -0.3166
     18 C6        -15.4942    0.1162    7.6943 C.3         1 TSV      -0.0320
     19 O6        -16.6367  -11.6054   14.8749 O.2         1 TSV      -0.1503
     20 C7        -16.6893    0.3776    9.9246 C.3         1 TSV      -0.0320
     21 O7        -14.0953   -8.6190   12.4194 O.2         1 TSV      -0.3947
     22 C8        -14.1876    0.9463    9.7186 C.3         1 TSV      -0.0320
     23 O8         -9.7098   -5.9643   11.3727 O.3         1 TSV      -0.2338
     24 C9        -15.3386    0.0124    9.2385 C.3         1 TSV       0.0905
     25 O9        -14.7234  -12.3028   10.9683 O.2         1 TSV      -0.3402
     26 C10       -18.3979   -8.8732   11.2477 C.2         1 TSV      -0.0985
     27 C11       -13.5796   -8.5591   11.3097 C.2         1 TSV       0.2014
     28 C12        -7.8104   -5.4690    8.3179 C.2         1 TSV       0.0391
     29 C13       -17.9565   -7.5556   11.6855 C.3         1 TSV      -0.0365
     30 C14        -5.1234   -3.0764    7.1963 C.ar        1 TSV      -0.0639
     31 C15       -12.5193   -7.5803   11.0869 C.3         1 TSV       0.1363
     32 C16        -6.0393   -4.1392    7.0526 C.ar        1 TSV      -0.0660
     33 C17        -5.0225   -2.3796    8.4221 C.ar        1 TSV      -0.0284
     34 C18       -17.8974   -7.4184   13.2316 C.3         1 TSV      -0.0464
     35 C19       -17.5045   -6.0004   13.7512 C.3         1 TSV      -0.0513
     36 C20       -14.8736   -2.0717   10.6476 C.2         1 TSV       0.3223
     37 C21        -5.8416   -2.7330    9.5149 C.ar        1 TSV       0.1323
     38 C22       -16.0659   -5.5157   13.3931 C.3         1 TSV      -0.0487
     39 C23       -14.0589  -12.4847   14.5689 C.3         1 TSV       0.1004
     40 C24        -6.8398   -4.4880    8.1535 C.ar        1 TSV      -0.0325
     41 C25       -15.9982   -4.5704   12.1550 C.3         1 TSV      -0.0124
     42 C26        -6.7468   -3.8011    9.3614 C.ar        1 TSV       0.0028
     43 C27       -11.2472   -7.9266   11.9036 C.3         1 TSV       0.0206
     44 C28       -14.5582   -4.3538   11.5768 C.3         1 TSV       0.1330
     45 C29       -12.7515  -12.2034   13.8107 C.3         1 TSV      -0.0268
     46 C30       -10.6642   -6.5548   12.2789 C.3         1 TSV       0.1158
     47 C31        -7.6658   -4.3898   10.2237 C.2         1 TSV       0.0402
     48 C32       -13.1915  -11.2733   14.9502 C.3         1 TSV      -0.0268
     49 C33       -13.9895   -5.6004   11.0408 C.2         1 TSV       0.2064
     50 C34       -11.9215   -5.6646   12.3848 C.3         1 TSV       0.0677
     51 C35        -9.2781   -6.1827   10.0977 C.2         1 TSV       0.4317
     52 H1        -16.3077  -11.4437    8.8551 H           1 TSV       0.0300
     53 H2        -15.2316  -10.1154    8.0826 H           1 TSV       0.0300
     54 H3        -14.4710   -3.7118    9.6130 H           1 TSV       0.1899
     55 H4        -13.6029   -9.1813    9.4449 H           1 TSV       0.1841
     56 H5        -16.3312   -8.4337    9.3578 H           1 TSV       0.0435
     57 H6        -16.0111  -10.1326   12.7248 H           1 TSV       0.2148
     58 H7        -18.1913  -10.5646   10.1810 H           1 TSV       0.0452
     59 H8        -15.7398    1.1376    7.3919 H           1 TSV       0.0260
     60 H9        -16.2883   -0.5490    7.3469 H           1 TSV       0.0260
     61 H10       -14.5652   -0.1756    7.1983 H           1 TSV       0.0260
     62 H11       -17.0331    1.3586    9.5928 H           1 TSV       0.0260
     63 H12       -16.5766    0.4096   11.0082 H           1 TSV       0.0260
     64 H13       -17.4553   -0.3642    9.6835 H           1 TSV       0.0260
     65 H14       -14.4184    1.9929    9.5030 H           1 TSV       0.0260
     66 H15       -13.2575    0.6860    9.2092 H           1 TSV       0.0260
     67 H16       -14.0294    0.8434   10.7935 H           1 TSV       0.0260
     68 H17       -19.2940   -9.1684   11.5676 H           1 TSV       0.0450
     69 H18        -8.0967   -6.1276    7.5887 H           1 TSV       0.0373
     70 H19       -18.6592   -6.8174   11.2900 H           1 TSV       0.0388
     71 H20       -16.9700   -7.3150   11.2932 H           1 TSV       0.0388
     72 H21        -4.5277   -2.8085    6.4111 H           1 TSV       0.0607
     73 H22       -12.2645   -7.5533   10.0232 H           1 TSV       0.0803
     74 H23        -6.1209   -4.6428    6.1655 H           1 TSV       0.0580
     75 H24        -4.3519   -1.6129    8.5151 H           1 TSV       0.0604
     76 H25       -17.1895   -8.1512   13.6328 H           1 TSV       0.0285
     77 H26       -18.8840   -7.6611   13.6410 H           1 TSV       0.0285
     78 H27       -17.5900   -6.0319   14.8439 H           1 TSV       0.0267
     79 H28       -18.2440   -5.2732   13.4028 H           1 TSV       0.0267
     80 H29       -15.4339   -6.3896   13.2372 H           1 TSV       0.0267
     81 H30       -15.6528   -4.9770   14.2520 H           1 TSV       0.0267
     82 H31       -14.0150  -13.3064   15.2895 H           1 TSV       0.0559
     83 H32       -16.4071   -3.6059   12.4681 H           1 TSV       0.0312
     84 H33       -16.6518   -4.9459   11.3629 H           1 TSV       0.0312
     85 H34       -10.5459   -8.5487   11.3464 H           1 TSV       0.0342
     86 H35       -11.4946   -8.4566   12.8302 H           1 TSV       0.0342
     87 H36       -13.9359   -3.9586   12.3815 H           1 TSV       0.0799
     88 H37       -12.8126  -11.7516   12.8200 H           1 TSV       0.0285
     89 H38       -11.9120  -12.8598   14.0485 H           1 TSV       0.0285
     90 H39       -10.1654   -6.6258   13.2498 H           1 TSV       0.0673
     91 H40        -7.8279   -4.1001   11.1907 H           1 TSV       0.0367
     92 H41       -12.6239  -11.3693   15.8789 H           1 TSV       0.0285
     93 H42       -13.5519  -10.2875   14.6446 H           1 TSV       0.0285
     94 H43       -12.3164   -5.6742   13.4062 H           1 TSV       0.0553
     95 H44       -11.6704   -4.6347   12.1138 H           1 TSV       0.0553
@<TRIPOS>BOND
     1     6     1   1
     2     9     1   1
     3    37     2   1
     4     3    36  am
     5    44     3   1
     6     4    24   1
     7    36     4   1
     8    10     5  am
     9     5    14   2
    10     5    19   2
    11     5    39   1
    12     7     6   1
    13     6     9   1
    14     6    12   1
    15    27     7  am
    16    36     8   2
    17     9    15   1
    18    12    10  am
    19    49    11   2
    20    12    25   2
    21    13    28   1
    22    13    47   1
    23    51    13  am
    24    15    26   2
    25    31    16   1
    26    16    49  am
    27    16    50   1
    28    51    17   2
    29    24    18   1
    30    24    20   1
    31    27    21   2
    32    24    22   1
    33    46    23   1
    34    23    51   1
    35    26    29   1
    36    31    27   1
    37    28    40   2
    38    29    34   1
    39    32    30  ar
    40    33    30  ar
    41    43    31   1
    42    40    32  ar
    43    37    33  ar
    44    34    35   1
    45    35    38   1
    46    42    37  ar
    47    38    41   1
    48    39    45   1
    49    39    48   1
    50    42    40  ar
    51    41    44   1
    52    47    42   2
    53    43    46   1
    54    44    49   1
    55    45    48   1
    56    46    50   1
    57     1    52   1
    58     1    53   1
    59     3    54   1
    60     7    55   1
    61     9    56   1
    62    10    57   1
    63    15    58   1
    64    18    59   1
    65    18    60   1
    66    18    61   1
    67    20    62   1
    68    20    63   1
    69    20    64   1
    70    22    65   1
    71    22    66   1
    72    22    67   1
    73    26    68   1
    74    28    69   1
    75    29    70   1
    76    29    71   1
    77    30    72   1
    78    31    73   1
    79    32    74   1
    80    33    75   1
    81    34    76   1
    82    34    77   1
    83    35    78   1
    84    35    79   1
    85    38    80   1
    86    38    81   1
    87    39    82   1
    88    41    83   1
    89    41    84   1
    90    43    85   1
    91    43    86   1
    92    44    87   1
    93    45    88   1
    94    45    89   1
    95    46    90   1
    96    47    91   1
    97    48    92   1
    98    48    93   1
    99    50    94   1
   100    50    95   1
@<TRIPOS>SUBSTRUCTURE
     1  TSV      1

