@<TRIPOS>MOLECULE
3su2_ligand_035
    95   100
SMALL
GAST_HUCK
****
This file was generated by PARSER (from files_GN.cpp)

@<TRIPOS>ATOM
      1 C1         -8.7688   -6.3174   10.6430 C.3         1 TSV      -0.0069
      2 F1         -7.7548  -16.3522   10.5499 F           1 TSV      -0.1836
      3 N1        -14.2582  -11.1670   10.7697 N.am        1 TSV      -0.2412
      4 O1        -14.1279  -12.2417   12.8138 O.3         1 TSV      -0.2580
      5 S1         -7.2197   -4.8561    6.5662 S.o2        1 TSV       0.0645
      6 C2         -9.5081   -6.6265    9.3235 C.3         1 TSV       0.1453
      7 N2         -9.5518   -8.0231    9.0134 N.am        1 TSV      -0.2722
      8 O2        -12.1996  -11.1971   11.9732 O.2         1 TSV      -0.3774
      9 C3        -10.3008   -6.2437   10.5979 C.3         1 TSV       0.0105
     10 N3         -7.8877   -5.8371    7.7612 N.am        1 TSV      -0.1550
     11 O3        -11.9706   -9.4065   10.2166 O.2         1 TSV      -0.3942
     12 C4         -9.0968   -5.7030    8.2766 C.2         1 TSV       0.2463
     13 N4        -10.0117  -15.3286    7.0228 N.am        1 TSV      -0.2075
     14 O4         -6.4282   -5.8219    5.5784 O.2         1 TSV      -0.1503
     15 C5        -10.9857   -4.9652   10.6366 C.2         1 TSV      -0.0942
     16 N5        -11.7982  -10.4615    8.2762 N.am        1 TSV      -0.2469
     17 O5        -11.1581  -14.4111    5.1873 O.2         1 TSV      -0.3166
     18 C6        -14.8902  -13.3580   14.7926 C.3         1 TSV      -0.0320
     19 O6         -6.1315   -3.8988    7.2269 O.2         1 TSV      -0.1503
     20 C7        -12.5334  -13.7686   13.9573 C.3         1 TSV      -0.0320
     21 O7        -10.9440   -7.8994    7.2859 O.2         1 TSV      -0.3947
     22 C8        -13.1681  -11.4915   14.9478 C.3         1 TSV      -0.0320
     23 O8        -10.5259  -13.0250    6.9724 O.3         1 TSV      -0.2338
     24 C9        -13.6609  -12.7024   14.1001 C.3         1 TSV       0.0905
     25 O9         -9.8991   -4.8821    7.8457 O.2         1 TSV      -0.3402
     26 C10       -12.2990   -4.7935   10.3896 C.2         1 TSV      -0.0985
     27 C11       -10.2780   -8.5829    8.0554 C.2         1 TSV       0.2014
     28 C12       -10.0505  -16.6072    6.5804 C.2         1 TSV       0.0391
     29 C13       -13.2812   -5.8379   10.1204 C.3         1 TSV      -0.0365
     30 C14        -8.4196  -19.3509    8.5865 C.ar        1 TSV      -0.0639
     31 C15       -10.4350  -10.0363    8.0339 C.3         1 TSV       0.1363
     32 C16        -9.1507  -18.8073    7.5094 C.ar        1 TSV      -0.0660
     33 C17        -7.9427  -18.5139    9.6218 C.ar        1 TSV      -0.0284
     34 C18       -14.0486   -5.6589    8.7828 C.3         1 TSV      -0.0464
     35 C19       -15.1877   -6.6970    8.5467 C.3         1 TSV      -0.0513
     36 C20       -13.5027  -11.5332   11.8332 C.2         1 TSV       0.3223
     37 C21        -8.1960  -17.1259    9.5956 C.ar        1 TSV       0.1323
     38 C22       -14.7318   -8.1788    8.3740 C.3         1 TSV      -0.0487
     39 C23        -8.4035   -3.9007    5.5907 C.3         1 TSV       0.1004
     40 C24        -9.3882  -17.4209    7.4927 C.ar        1 TSV      -0.0325
     41 C25       -14.7661   -9.0439    9.6742 C.3         1 TSV      -0.0124
     42 C26        -8.9284  -16.5979    8.5146 C.ar        1 TSV       0.0028
     43 C27       -10.0307  -10.6526    6.6725 C.3         1 TSV       0.0206
     44 C28       -13.9402  -10.3722    9.6061 C.3         1 TSV       0.1330
     45 C29        -8.5182   -4.1226    4.0700 C.3         1 TSV      -0.0268
     46 C30       -11.0442  -11.7862    6.4465 C.3         1 TSV       0.1158
     47 C31        -9.3388  -15.3033    8.1989 C.2         1 TSV       0.0402
     48 C32        -9.6019   -4.6743    5.0083 C.3         1 TSV      -0.0268
     49 C33       -12.5137  -10.0953    9.3608 C.2         1 TSV       0.2064
     50 C34       -12.2781  -11.3391    7.2485 C.3         1 TSV       0.0677
     51 C35       -10.5548  -14.2546    6.3919 C.2         1 TSV       0.4317
     52 H1         -8.2630   -5.3545   10.7555 H           1 TSV       0.0300
     53 H2         -8.3684   -7.1688   11.2006 H           1 TSV       0.0300
     54 H3        -15.1787  -11.4856   10.7998 H           1 TSV       0.1899
     55 H4         -9.0759   -8.6199    9.6123 H           1 TSV       0.1841
     56 H5        -10.7433   -7.0588   11.1760 H           1 TSV       0.0435
     57 H6         -7.3268   -6.5479    8.1159 H           1 TSV       0.2148
     58 H7        -10.4405   -4.1601   10.8383 H           1 TSV       0.0452
     59 H8        -14.6387  -13.6804   15.8067 H           1 TSV       0.0260
     60 H9        -15.2271  -14.2297   14.2271 H           1 TSV       0.0260
     61 H10       -15.7214  -12.6525   14.8507 H           1 TSV       0.0260
     62 H11       -12.2636  -14.1756   14.9369 H           1 TSV       0.0260
     63 H12       -11.6333  -13.3380   13.5157 H           1 TSV       0.0260
     64 H13       -12.8666  -14.5919   13.3230 H           1 TSV       0.0260
     65 H14       -12.8539  -11.8166   15.9437 H           1 TSV       0.0260
     66 H15       -13.9622  -10.7505   15.0609 H           1 TSV       0.0260
     67 H16       -12.3195  -11.0030   14.4666 H           1 TSV       0.0260
     68 H17       -12.6454   -3.8614   10.4404 H           1 TSV       0.0450
     69 H18       -10.4960  -16.9403    5.7230 H           1 TSV       0.0373
     70 H19       -14.0014   -5.8279   10.9427 H           1 TSV       0.0388
     71 H20       -12.8109   -6.8168   10.1034 H           1 TSV       0.0388
     72 H21        -8.2315  -20.3554    8.6167 H           1 TSV       0.0607
     73 H22        -9.8141  -10.4994    8.8104 H           1 TSV       0.0803
     74 H23        -9.4967  -19.4074    6.7577 H           1 TSV       0.0580
     75 H24        -7.4084  -18.9229   10.3920 H           1 TSV       0.0604
     76 H25       -13.3389   -5.7111    7.9511 H           1 TSV       0.0285
     77 H26       -14.4960   -4.6592    8.7680 H           1 TSV       0.0285
     78 H27       -15.6991   -6.3965    7.6277 H           1 TSV       0.0267
     79 H28       -15.9229   -6.6229    9.3515 H           1 TSV       0.0267
     80 H29       -13.7345   -8.1811    7.9367 H           1 TSV       0.0267
     81 H30       -15.3893   -8.6632    7.6458 H           1 TSV       0.0267
     82 H31        -8.6745   -2.9038    5.9524 H           1 TSV       0.0559
     83 H32       -15.8122   -9.2900    9.8749 H           1 TSV       0.0312
     84 H33       -14.4206   -8.4560   10.5287 H           1 TSV       0.0312
     85 H34        -9.0029  -11.0252    6.6883 H           1 TSV       0.0342
     86 H35       -10.1182   -9.9318    5.8542 H           1 TSV       0.0342
     87 H36       -14.3563  -10.9355    8.7736 H           1 TSV       0.0799
     88 H37        -7.8936   -4.8889    3.6139 H           1 TSV       0.0285
     89 H38        -8.8247   -3.2609    3.4768 H           1 TSV       0.0285
     90 H39       -11.2868  -11.8786    5.3810 H           1 TSV       0.0673
     91 H40        -9.1450  -14.4766    8.7670 H           1 TSV       0.0367
     92 H41       -10.5502   -4.1368    4.9996 H           1 TSV       0.0285
     93 H42        -9.5965   -5.7568    5.1263 H           1 TSV       0.0285
     94 H43       -12.9802  -10.8008    6.6052 H           1 TSV       0.0553
     95 H44       -12.7776  -12.2206    7.6614 H           1 TSV       0.0553
@<TRIPOS>BOND
     1     6     1   1
     2     9     1   1
     3    37     2   1
     4     3    36  am
     5    44     3   1
     6     4    24   1
     7    36     4   1
     8    10     5  am
     9     5    14   2
    10     5    19   2
    11     5    39   1
    12     7     6   1
    13     6     9   1
    14     6    12   1
    15    27     7  am
    16    36     8   2
    17     9    15   1
    18    12    10  am
    19    49    11   2
    20    12    25   2
    21    13    28   1
    22    13    47   1
    23    51    13  am
    24    15    26   2
    25    31    16   1
    26    16    49  am
    27    16    50   1
    28    51    17   2
    29    24    18   1
    30    24    20   1
    31    27    21   2
    32    24    22   1
    33    46    23   1
    34    23    51   1
    35    26    29   1
    36    31    27   1
    37    28    40   2
    38    29    34   1
    39    32    30  ar
    40    33    30  ar
    41    43    31   1
    42    40    32  ar
    43    37    33  ar
    44    34    35   1
    45    35    38   1
    46    42    37  ar
    47    38    41   1
    48    39    45   1
    49    39    48   1
    50    42    40  ar
    51    41    44   1
    52    47    42   2
    53    43    46   1
    54    44    49   1
    55    45    48   1
    56    46    50   1
    57     1    52   1
    58     1    53   1
    59     3    54   1
    60     7    55   1
    61     9    56   1
    62    10    57   1
    63    15    58   1
    64    18    59   1
    65    18    60   1
    66    18    61   1
    67    20    62   1
    68    20    63   1
    69    20    64   1
    70    22    65   1
    71    22    66   1
    72    22    67   1
    73    26    68   1
    74    28    69   1
    75    29    70   1
    76    29    71   1
    77    30    72   1
    78    31    73   1
    79    32    74   1
    80    33    75   1
    81    34    76   1
    82    34    77   1
    83    35    78   1
    84    35    79   1
    85    38    80   1
    86    38    81   1
    87    39    82   1
    88    41    83   1
    89    41    84   1
    90    43    85   1
    91    43    86   1
    92    44    87   1
    93    45    88   1
    94    45    89   1
    95    46    90   1
    96    47    91   1
    97    48    92   1
    98    48    93   1
    99    50    94   1
   100    50    95   1
@<TRIPOS>SUBSTRUCTURE
     1  TSV      1

