@<TRIPOS>MOLECULE
3su2_ligand_042
    95   100
SMALL
GAST_HUCK
****
This file was generated by PARSER (from files_GN.cpp)

@<TRIPOS>ATOM
      1 C1        -14.4698  -16.4471   14.8328 C.3         1 TSV      -0.0069
      2 F1        -15.3964   -3.6971   16.2879 F           1 TSV      -0.1836
      3 N1        -11.7191  -10.9289   10.4964 N.am        1 TSV      -0.2412
      4 O1        -10.1143   -9.3434   11.0219 O.3         1 TSV      -0.2580
      5 S1        -19.0877  -16.7791   14.8420 S.o2        1 TSV       0.0645
      6 C2        -15.3737  -15.6481   13.8665 C.3         1 TSV       0.1453
      7 N2        -15.2868  -14.2315   14.0190 N.am        1 TSV      -0.2722
      8 O2        -12.3206   -8.6386   10.5846 O.2         1 TSV      -0.3774
      9 C3        -14.0554  -16.2846   13.3645 C.3         1 TSV       0.0105
     10 N3        -17.5069  -16.1856   14.8053 N.am        1 TSV      -0.1550
     11 O3        -12.9838  -12.6743   12.2291 O.2         1 TSV      -0.3942
     12 C4        -16.6947  -16.2469   13.7634 C.2         1 TSV       0.2463
     13 N4        -14.0288   -7.5245   14.7921 N.am        1 TSV      -0.2075
     14 O4        -19.8286  -16.4412   13.4749 O.2         1 TSV      -0.1503
     15 C5        -14.1318  -17.3974   12.4359 C.2         1 TSV      -0.0942
     16 N5        -14.7771  -11.3887   12.1071 N.am        1 TSV      -0.2469
     17 O5        -13.5160   -9.5731   13.8232 O.2         1 TSV      -0.3166
     18 C6         -7.9659   -8.5151   11.6397 C.3         1 TSV      -0.0320
     19 O6        -19.8801  -15.9136   15.9126 O.2         1 TSV      -0.1503
     20 C7         -9.4152   -7.2444    9.9642 C.3         1 TSV      -0.0320
     21 O7        -16.4164  -13.6806   12.1845 O.2         1 TSV      -0.3947
     22 C8        -10.0471   -7.2949   12.4372 C.3         1 TSV      -0.0320
     23 O8        -15.6907   -8.7048   13.5717 O.3         1 TSV      -0.2338
     24 C9         -9.4199   -8.1017   11.2627 C.3         1 TSV       0.0905
     25 O9        -17.0449  -16.7083   12.6881 O.2         1 TSV      -0.3402
     26 C10       -13.9886  -17.2857   11.1039 C.2         1 TSV      -0.0985
     27 C11       -15.7520  -13.3385   13.1560 C.2         1 TSV       0.2014
     28 C12       -12.7921   -7.3664   15.3165 C.2         1 TSV       0.0391
     29 C13       -13.7115  -16.0699   10.3428 C.3         1 TSV      -0.0365
     30 C14       -11.9213   -4.2599   17.2296 C.ar        1 TSV      -0.0639
     31 C15       -15.3855  -11.9343   13.3025 C.3         1 TSV       0.1363
     32 C16       -11.6805   -5.5182   16.6466 C.ar        1 TSV      -0.0660
     33 C17       -13.1941   -3.6554   17.1235 C.ar        1 TSV      -0.0284
     34 C18       -14.7678  -15.8027    9.2365 C.3         1 TSV      -0.0464
     35 C19       -14.4321  -14.6236    8.2750 C.3         1 TSV      -0.0513
     36 C20       -11.4052   -9.6283   10.7001 C.2         1 TSV       0.3223
     37 C21       -14.2381   -4.2858   16.4109 C.ar        1 TSV       0.1323
     38 C22       -14.4103  -13.2069    8.9213 C.3         1 TSV      -0.0487
     39 C23       -19.2752  -18.5279   15.2550 C.3         1 TSV       0.1004
     40 C24       -12.7346   -6.1438   15.9659 C.ar        1 TSV      -0.0325
     41 C25       -12.9956  -12.6941    9.3321 C.3         1 TSV      -0.0124
     42 C26       -13.9889   -5.5494   15.8374 C.ar        1 TSV       0.0028
     43 C27       -16.6048  -11.0256   13.6051 C.3         1 TSV       0.0206
     44 C28       -13.0408  -11.4626   10.2938 C.3         1 TSV       0.1330
     45 C29       -18.0283  -19.3528   15.6091 C.3         1 TSV      -0.0268
     46 C30       -16.3382   -9.7438   12.7997 C.3         1 TSV       0.1158
     47 C31       -14.7720   -6.4332   15.0980 C.2         1 TSV       0.0402
     48 C32       -18.9965  -18.9187   16.7149 C.3         1 TSV      -0.0268
     49 C33       -13.6158  -11.8362   11.5933 C.2         1 TSV       0.2064
     50 C34       -15.5078  -10.2574   11.6061 C.3         1 TSV       0.0677
     51 C35       -14.4264   -8.6049   14.0757 C.2         1 TSV       0.4317
     52 H1        -14.7609  -17.4608   15.1149 H           1 TSV       0.0300
     53 H2        -13.8704  -15.8695   15.5411 H           1 TSV       0.0300
     54 H3        -10.9918  -11.5708   10.5659 H           1 TSV       0.1899
     55 H4        -14.7491  -13.8975   14.7551 H           1 TSV       0.1841
     56 H5        -13.1893  -15.6229   13.2721 H           1 TSV       0.0435
     57 H6        -17.1744  -15.7730   15.6178 H           1 TSV       0.2148
     58 H7        -14.2985  -18.3039   12.8127 H           1 TSV       0.0452
     59 H8         -7.3269   -7.6392   11.7654 H           1 TSV       0.0260
     60 H9         -7.5380   -9.1469   10.8625 H           1 TSV       0.0260
     61 H10        -7.9510   -9.0828   12.5704 H           1 TSV       0.0260
     62 H11        -8.7627   -6.3755   10.0739 H           1 TSV       0.0260
     63 H12       -10.4212   -6.8877    9.7340 H           1 TSV       0.0260
     64 H13        -9.0679   -7.8387    9.1176 H           1 TSV       0.0260
     65 H14        -9.4181   -6.4380   12.6962 H           1 TSV       0.0260
     66 H15       -10.1493   -7.9203   13.3225 H           1 TSV       0.0260
     67 H16       -11.0367   -6.9196   12.1721 H           1 TSV       0.0260
     68 H17       -14.0504  -18.1290   10.5779 H           1 TSV       0.0450
     69 H18       -12.0132   -8.0292   15.2564 H           1 TSV       0.0373
     70 H19       -12.7307  -16.1879    9.8764 H           1 TSV       0.0388
     71 H20       -13.6687  -15.1960   10.9894 H           1 TSV       0.0388
     72 H21       -11.1685   -3.7861   17.7351 H           1 TSV       0.0607
     73 H22       -14.6764  -11.8278   14.1317 H           1 TSV       0.0803
     74 H23       -10.7638   -5.9645   16.7190 H           1 TSV       0.0580
     75 H24       -13.3581   -2.7547   17.5733 H           1 TSV       0.0604
     76 H25       -15.7376  -15.6141    9.7070 H           1 TSV       0.0285
     77 H26       -14.8709  -16.7031    8.6240 H           1 TSV       0.0285
     78 H27       -15.2014  -14.6226    7.4956 H           1 TSV       0.0267
     79 H28       -13.4799  -14.8220    7.7745 H           1 TSV       0.0267
     80 H29       -15.0827  -13.2087    9.7805 H           1 TSV       0.0267
     81 H30       -14.8227  -12.4882    8.2066 H           1 TSV       0.0267
     82 H31       -20.1006  -19.0791   14.8014 H           1 TSV       0.0559
     83 H32       -12.4600  -12.4136    8.4195 H           1 TSV       0.0312
     84 H33       -12.4237  -13.5015    9.7946 H           1 TSV       0.0312
     85 H34       -16.7003  -10.8193   14.6744 H           1 TSV       0.0342
     86 H35       -17.5428  -11.4778   13.2607 H           1 TSV       0.0342
     87 H36       -13.6502  -10.7162    9.7824 H           1 TSV       0.0799
     88 H37       -17.0640  -18.8429   15.6238 H           1 TSV       0.0285
     89 H38       -18.0646  -20.4145   15.3601 H           1 TSV       0.0285
     90 H39       -17.2873   -9.3316   12.4443 H           1 TSV       0.0673
     91 H40       -15.7493   -6.2812   14.8294 H           1 TSV       0.0367
     92 H41       -19.6219  -19.7146   17.1238 H           1 TSV       0.0285
     93 H42       -18.6188  -18.1417   17.3826 H           1 TSV       0.0285
     94 H43       -16.1577  -10.5767   10.7818 H           1 TSV       0.0553
     95 H44       -14.8584   -9.4513   11.2601 H           1 TSV       0.0553
@<TRIPOS>BOND
     1     6     1   1
     2     9     1   1
     3    37     2   1
     4     3    36  am
     5    44     3   1
     6     4    24   1
     7    36     4   1
     8    10     5  am
     9     5    14   2
    10     5    19   2
    11     5    39   1
    12     7     6   1
    13     6     9   1
    14     6    12   1
    15    27     7  am
    16    36     8   2
    17     9    15   1
    18    12    10  am
    19    49    11   2
    20    12    25   2
    21    13    28   1
    22    13    47   1
    23    51    13  am
    24    15    26   2
    25    31    16   1
    26    16    49  am
    27    16    50   1
    28    51    17   2
    29    24    18   1
    30    24    20   1
    31    27    21   2
    32    24    22   1
    33    46    23   1
    34    23    51   1
    35    26    29   1
    36    31    27   1
    37    28    40   2
    38    29    34   1
    39    32    30  ar
    40    33    30  ar
    41    43    31   1
    42    40    32  ar
    43    37    33  ar
    44    34    35   1
    45    35    38   1
    46    42    37  ar
    47    38    41   1
    48    39    45   1
    49    39    48   1
    50    42    40  ar
    51    41    44   1
    52    47    42   2
    53    43    46   1
    54    44    49   1
    55    45    48   1
    56    46    50   1
    57     1    52   1
    58     1    53   1
    59     3    54   1
    60     7    55   1
    61     9    56   1
    62    10    57   1
    63    15    58   1
    64    18    59   1
    65    18    60   1
    66    18    61   1
    67    20    62   1
    68    20    63   1
    69    20    64   1
    70    22    65   1
    71    22    66   1
    72    22    67   1
    73    26    68   1
    74    28    69   1
    75    29    70   1
    76    29    71   1
    77    30    72   1
    78    31    73   1
    79    32    74   1
    80    33    75   1
    81    34    76   1
    82    34    77   1
    83    35    78   1
    84    35    79   1
    85    38    80   1
    86    38    81   1
    87    39    82   1
    88    41    83   1
    89    41    84   1
    90    43    85   1
    91    43    86   1
    92    44    87   1
    93    45    88   1
    94    45    89   1
    95    46    90   1
    96    47    91   1
    97    48    92   1
    98    48    93   1
    99    50    94   1
   100    50    95   1
@<TRIPOS>SUBSTRUCTURE
     1  TSV      1

