@<TRIPOS>MOLECULE
3su2_ligand_026
    95   100
SMALL
GAST_HUCK
****
This file was generated by PARSER (from files_GN.cpp)

@<TRIPOS>ATOM
      1 C1         -9.8252   -6.6178    7.9106 C.3         1 TSV      -0.0069
      2 F1         -8.9339  -15.9215   12.5488 F           1 TSV      -0.1836
      3 N1        -14.1716   -7.9342   13.6532 N.am        1 TSV      -0.2412
      4 O1        -13.1793   -6.9374   15.5109 O.3         1 TSV      -0.2580
      5 S1        -11.0807   -8.1055    3.7332 S.o2        1 TSV       0.0645
      6 C2        -11.1800   -7.3191    7.6544 C.3         1 TSV       0.1453
      7 N2        -11.3883   -8.5062    8.4304 N.am        1 TSV      -0.2722
      8 O2        -13.4062   -5.6912   13.5342 O.2         1 TSV      -0.3774
      9 C3        -11.1130   -6.0238    8.5030 C.3         1 TSV       0.0105
     10 N3        -10.8060   -8.0265    5.3956 N.am        1 TSV      -0.1550
     11 O3        -12.6304   -7.8895   11.3138 O.2         1 TSV      -0.3942
     12 C4        -11.5386   -7.3285    6.2476 C.2         1 TSV       0.2463
     13 N4        -12.9555  -14.3824   12.7726 N.am        1 TSV      -0.2075
     14 O4         -9.7523   -8.6714    3.0701 O.2         1 TSV      -0.1503
     15 C5        -11.6805   -4.8033    7.9646 C.2         1 TSV      -0.0942
     16 N5        -13.6745   -9.7468   10.7070 N.am        1 TSV      -0.2469
     17 O5        -15.1187  -13.5141   12.4628 O.2         1 TSV      -0.3166
     18 C6        -11.3354   -5.2819   15.8370 C.3         1 TSV      -0.0320
     19 O6        -11.1819   -6.6290    3.1480 O.2         1 TSV      -0.1503
     20 C7        -13.7144   -4.8584   16.6639 C.3         1 TSV      -0.0320
     21 O7        -13.5770   -8.6507    8.0796 O.2         1 TSV      -0.3947
     22 C8        -12.2787   -6.6697   17.7358 C.3         1 TSV      -0.0320
     23 O8        -13.3931  -12.8831   11.0048 O.3         1 TSV      -0.2338
     24 C9        -12.6287   -5.9411   16.4032 C.3         1 TSV       0.0905
     25 O9        -12.5566   -6.7443    5.8978 O.2         1 TSV      -0.3402
     26 C10       -12.9073   -4.3309    8.2708 C.2         1 TSV      -0.0985
     27 C11       -12.5723   -9.0637    8.6503 C.2         1 TSV       0.2014
     28 C12       -13.2279  -15.0484   13.9190 C.2         1 TSV       0.0391
     29 C13       -13.8609   -4.9094    9.2118 C.3         1 TSV      -0.0365
     30 C14       -10.5848  -17.1950   15.5337 C.ar        1 TSV      -0.0639
     31 C15       -12.7257  -10.0999    9.6723 C.3         1 TSV       0.1363
     32 C16       -11.8524  -16.5877   15.4212 C.ar        1 TSV      -0.0660
     33 C17        -9.5923  -16.9733   14.5534 C.ar        1 TSV      -0.0284
     34 C18       -15.2426   -5.2227    8.5793 C.3         1 TSV      -0.0464
     35 C19       -16.3484   -5.6862    9.5773 C.3         1 TSV      -0.0513
     36 C20       -13.5843   -6.8477   14.2144 C.2         1 TSV       0.3223
     37 C21        -9.8480  -16.1241   13.4535 C.ar        1 TSV       0.1323
     38 C22       -16.0863   -7.0202   10.3411 C.3         1 TSV      -0.0487
     39 C23       -12.4584   -9.1286    3.1505 C.3         1 TSV       0.1004
     40 C24       -12.0985  -15.7551   14.3154 C.ar        1 TSV      -0.0325
     41 C25       -15.3796   -6.8310   11.7178 C.3         1 TSV      -0.0124
     42 C26       -11.1149  -15.5160   13.3581 C.ar        1 TSV       0.0028
     43 C27       -13.2449  -11.4292    9.0650 C.3         1 TSV       0.0206
     44 C28       -14.6735   -8.0940   12.3083 C.3         1 TSV       0.1330
     45 C29       -12.4844  -10.5940    3.6026 C.3         1 TSV      -0.0268
     46 C30       -14.1599  -12.0145   10.1516 C.3         1 TSV       0.1158
     47 C31       -11.6737  -14.6490   12.4246 C.2         1 TSV       0.0402
     48 C32       -13.5178   -9.6045    4.1521 C.3         1 TSV      -0.0268
     49 C33       -13.6143   -8.6122   11.4330 C.2         1 TSV       0.2064
     50 C34       -14.6843  -10.7535   10.8692 C.3         1 TSV       0.0677
     51 C35       -13.8215  -13.5937   12.0840 C.2         1 TSV       0.4317
     52 H1         -9.3752   -6.0337    7.1066 H           1 TSV       0.0300
     53 H2         -9.1604   -7.0775    8.6441 H           1 TSV       0.0300
     54 H3        -14.2601   -8.7071   14.2339 H           1 TSV       0.1899
     55 H4        -10.6314   -8.8543    8.9285 H           1 TSV       0.1841
     56 H5        -11.1275   -6.1413    9.5907 H           1 TSV       0.0435
     57 H6        -10.0264   -8.4926    5.7434 H           1 TSV       0.2148
     58 H7        -11.1338   -4.2824    7.3181 H           1 TSV       0.0452
     59 H8        -10.9017   -4.5989   16.5725 H           1 TSV       0.0260
     60 H9        -11.5453   -4.6966   14.9398 H           1 TSV       0.0260
     61 H10       -10.5957   -6.0455   15.5846 H           1 TSV       0.0260
     62 H11       -13.3469   -4.0903   17.3499 H           1 TSV       0.0260
     63 H12       -14.6107   -5.3106   17.0945 H           1 TSV       0.0260
     64 H13       -13.9988   -4.3679   15.7313 H           1 TSV       0.0260
     65 H14       -11.8707   -5.9714   18.4713 H           1 TSV       0.0260
     66 H15       -11.5332   -7.4482   17.5579 H           1 TSV       0.0260
     67 H16       -13.1652   -7.1414   18.1685 H           1 TSV       0.0260
     68 H17       -13.1776   -3.4787    7.8349 H           1 TSV       0.0450
     69 H18       -14.1169  -15.0380   14.4303 H           1 TSV       0.0373
     70 H19       -13.9925   -4.1892   10.0238 H           1 TSV       0.0388
     71 H20       -13.4715   -5.8302    9.6416 H           1 TSV       0.0388
     72 H21       -10.3823  -17.7998   16.3337 H           1 TSV       0.0607
     73 H22       -11.7663  -10.2964   10.1598 H           1 TSV       0.0803
     74 H23       -12.5725  -16.7488   16.1252 H           1 TSV       0.0580
     75 H24        -8.6795  -17.4280   14.6475 H           1 TSV       0.0604
     76 H25       -15.1144   -5.9914    7.8129 H           1 TSV       0.0285
     77 H26       -15.6085   -4.3205    8.0820 H           1 TSV       0.0285
     78 H27       -17.2650   -5.8145    8.9913 H           1 TSV       0.0267
     79 H28       -16.5471   -4.8814   10.2945 H           1 TSV       0.0267
     80 H29       -15.5128   -7.6826    9.6957 H           1 TSV       0.0267
     81 H30       -17.0438   -7.5152   10.5271 H           1 TSV       0.0267
     82 H31       -12.8050   -8.9796    2.1268 H           1 TSV       0.0559
     83 H32       -16.1281   -6.4862   12.4383 H           1 TSV       0.0312
     84 H33       -14.6541   -6.0326   11.6175 H           1 TSV       0.0312
     85 H34       -12.4226  -12.1027    8.8144 H           1 TSV       0.0342
     86 H35       -13.8404  -11.2608    8.1601 H           1 TSV       0.0342
     87 H36       -15.4712   -8.8286   12.4115 H           1 TSV       0.0799
     88 H37       -11.7175  -10.9113    4.3157 H           1 TSV       0.0285
     89 H38       -12.8692  -11.3134    2.8788 H           1 TSV       0.0285
     90 H39       -14.9808  -12.5856    9.7042 H           1 TSV       0.0673
     91 H40       -11.1887  -14.2971   11.5928 H           1 TSV       0.0367
     92 H41       -14.5287   -9.7324    3.7664 H           1 TSV       0.0285
     93 H42       -13.3806   -9.3561    5.2068 H           1 TSV       0.0285
     94 H43       -15.6189  -10.4146   10.4139 H           1 TSV       0.0553
     95 H44       -14.8638  -10.9848   11.9211 H           1 TSV       0.0553
@<TRIPOS>BOND
     1     6     1   1
     2     9     1   1
     3    37     2   1
     4     3    36  am
     5    44     3   1
     6     4    24   1
     7    36     4   1
     8    10     5  am
     9     5    14   2
    10     5    19   2
    11     5    39   1
    12     7     6   1
    13     6     9   1
    14     6    12   1
    15    27     7  am
    16    36     8   2
    17     9    15   1
    18    12    10  am
    19    49    11   2
    20    12    25   2
    21    13    28   1
    22    13    47   1
    23    51    13  am
    24    15    26   2
    25    31    16   1
    26    16    49  am
    27    16    50   1
    28    51    17   2
    29    24    18   1
    30    24    20   1
    31    27    21   2
    32    24    22   1
    33    46    23   1
    34    23    51   1
    35    26    29   1
    36    31    27   1
    37    28    40   2
    38    29    34   1
    39    32    30  ar
    40    33    30  ar
    41    43    31   1
    42    40    32  ar
    43    37    33  ar
    44    34    35   1
    45    35    38   1
    46    42    37  ar
    47    38    41   1
    48    39    45   1
    49    39    48   1
    50    42    40  ar
    51    41    44   1
    52    47    42   2
    53    43    46   1
    54    44    49   1
    55    45    48   1
    56    46    50   1
    57     1    52   1
    58     1    53   1
    59     3    54   1
    60     7    55   1
    61     9    56   1
    62    10    57   1
    63    15    58   1
    64    18    59   1
    65    18    60   1
    66    18    61   1
    67    20    62   1
    68    20    63   1
    69    20    64   1
    70    22    65   1
    71    22    66   1
    72    22    67   1
    73    26    68   1
    74    28    69   1
    75    29    70   1
    76    29    71   1
    77    30    72   1
    78    31    73   1
    79    32    74   1
    80    33    75   1
    81    34    76   1
    82    34    77   1
    83    35    78   1
    84    35    79   1
    85    38    80   1
    86    38    81   1
    87    39    82   1
    88    41    83   1
    89    41    84   1
    90    43    85   1
    91    43    86   1
    92    44    87   1
    93    45    88   1
    94    45    89   1
    95    46    90   1
    96    47    91   1
    97    48    92   1
    98    48    93   1
    99    50    94   1
   100    50    95   1
@<TRIPOS>SUBSTRUCTURE
     1  TSV      1

