@<TRIPOS>MOLECULE
3su2_ligand_039
    95   100
SMALL
GAST_HUCK
****
This file was generated by PARSER (from files_GN.cpp)

@<TRIPOS>ATOM
      1 C1        -14.0244   -7.3226   14.6666 C.3         1 TSV      -0.0069
      2 F1        -16.9704  -19.4369   18.9522 F           1 TSV      -0.1836
      3 N1        -19.4774  -12.0863   14.1417 N.am        1 TSV      -0.2412
      4 O1        -20.8578  -11.7667   15.9461 O.3         1 TSV      -0.2580
      5 S1        -12.4564   -6.9732   10.0832 S.o2        1 TSV       0.0645
      6 C2        -14.1448   -8.2937   13.4689 C.3         1 TSV       0.1453
      7 N2        -14.2661   -9.6598   13.8716 N.am        1 TSV      -0.2722
      8 O2        -21.0131  -10.2574   14.1431 O.2         1 TSV      -0.3774
      9 C3        -15.3367   -7.3898   13.8767 C.3         1 TSV       0.0105
     10 N3        -13.5225   -7.5171   11.2681 N.am        1 TSV      -0.1550
     11 O3        -17.1909  -10.5317   14.1465 O.2         1 TSV      -0.3942
     12 C4        -13.1477   -7.9581   12.4606 C.2         1 TSV       0.2463
     13 N4        -15.4197  -16.5366   16.1832 N.am        1 TSV      -0.2075
     14 O4        -13.4023   -6.6019    8.8510 O.2         1 TSV      -0.1503
     15 C5        -15.7358   -6.2892   13.0151 C.2         1 TSV      -0.0942
     16 N5        -16.2500  -12.3590   13.3234 N.am        1 TSV      -0.2469
     17 O5        -16.7212  -16.4659   14.2171 O.2         1 TSV      -0.3166
     18 C6        -23.2640  -11.6089   16.4084 C.3         1 TSV      -0.0320
     19 O6        -11.5421   -8.1579    9.5185 O.2         1 TSV      -0.1503
     20 C7        -21.5129  -11.9457   18.2271 C.3         1 TSV      -0.0320
     21 O7        -14.5623  -10.5524   11.8545 O.2         1 TSV      -0.3947
     22 C8        -21.6653   -9.7035   17.0544 C.3         1 TSV      -0.0320
     23 O8        -14.9068  -14.9978   14.4666 O.3         1 TSV      -0.2338
     24 C9        -21.8251  -11.2433   16.8750 C.3         1 TSV       0.0905
     25 O9        -11.9684   -8.1601   12.7294 O.2         1 TSV      -0.3402
     26 C10       -16.7094   -6.3723   12.0895 C.2         1 TSV      -0.0985
     27 C11       -14.5093  -10.6882   13.0715 C.2         1 TSV       0.2014
     28 C12       -14.3461  -16.2468   16.9591 C.2         1 TSV       0.0391
     29 C13       -17.5435   -7.5308   11.8027 C.3         1 TSV      -0.0365
     30 C14       -13.8340  -18.0770   20.2120 C.ar        1 TSV      -0.0639
     31 C15       -14.8981  -11.9687   13.6565 C.3         1 TSV       0.1363
     32 C16       -13.5119  -17.1554   19.1921 C.ar        1 TSV      -0.0660
     33 C17       -15.0148  -18.8455   20.1369 C.ar        1 TSV      -0.0284
     34 C18       -17.4196   -8.0324   10.3383 C.3         1 TSV      -0.0464
     35 C19       -18.3922   -9.1899    9.9569 C.3         1 TSV      -0.0513
     36 C20       -20.4665  -11.3611   14.7065 C.2         1 TSV       0.3223
     37 C21       -15.8853  -18.7191   19.0287 C.ar        1 TSV       0.1323
     38 C22       -18.1933  -10.5328   10.7327 C.3         1 TSV      -0.0487
     39 C23       -11.5847   -5.4407   10.4853 C.3         1 TSV       0.1004
     40 C24       -14.3893  -17.0357   18.0987 C.ar        1 TSV      -0.0325
     41 C25       -19.1144  -10.7039   11.9810 C.3         1 TSV      -0.0124
     42 C26       -15.5445  -17.8093   18.0121 C.ar        1 TSV       0.0028
     43 C27       -14.0095  -13.1468   13.1832 C.3         1 TSV       0.0206
     44 C28       -18.6717  -11.8284   12.9792 C.3         1 TSV       0.1330
     45 C29       -10.6748   -5.4216   11.7239 C.3         1 TSV      -0.0268
     46 C30       -14.9608  -14.3542   13.1766 C.3         1 TSV       0.1158
     47 C31       -16.1594  -17.4809   16.8110 C.2         1 TSV       0.0402
     48 C32       -10.0601   -5.4040   10.3189 C.3         1 TSV      -0.0268
     49 C33       -17.3240  -11.5691   13.5089 C.2         1 TSV       0.2064
     50 C34       -16.3216  -13.7076   12.8433 C.3         1 TSV       0.0677
     51 C35       -15.6934  -15.9939   14.9682 C.2         1 TSV       0.4317
     52 H1        -13.4668   -6.3910   14.5496 H           1 TSV       0.0300
     53 H2        -14.0947   -7.7494   15.6684 H           1 TSV       0.0300
     54 H3        -19.2186  -12.8799   14.6435 H           1 TSV       0.1899
     55 H4        -14.2746   -9.8303   14.8238 H           1 TSV       0.1841
     56 H5        -16.1238   -7.8668   14.4576 H           1 TSV       0.0435
     57 H6        -14.4642   -7.4150   11.0813 H           1 TSV       0.2148
     58 H7        -15.2583   -5.4255   13.1150 H           1 TSV       0.0452
     59 H8        -24.0077  -11.2726   17.1341 H           1 TSV       0.0260
     60 H9        -23.3581  -12.6911   16.2900 H           1 TSV       0.0260
     61 H10       -23.4882  -11.1394   15.4486 H           1 TSV       0.0260
     62 H11       -22.2245  -11.6424   18.9989 H           1 TSV       0.0260
     63 H12       -20.5062  -11.6862   18.5661 H           1 TSV       0.0260
     64 H13       -21.5634  -13.0310   18.1188 H           1 TSV       0.0260
     65 H14       -22.3178   -9.3471   17.8559 H           1 TSV       0.0260
     66 H15       -21.9265   -9.1709   16.1388 H           1 TSV       0.0260
     67 H16       -20.6334   -9.4535   17.3122 H           1 TSV       0.0260
     68 H17       -16.8969   -5.5481   11.5593 H           1 TSV       0.0450
     69 H18       -13.5979  -15.5844   16.7403 H           1 TSV       0.0373
     70 H19       -18.5836   -7.2510   11.9948 H           1 TSV       0.0388
     71 H20       -17.3002   -8.3643   12.4589 H           1 TSV       0.0388
     72 H21       -13.1986  -18.1991   21.0053 H           1 TSV       0.0607
     73 H22       -14.8419  -11.9209   14.7515 H           1 TSV       0.0803
     74 H23       -12.6571  -16.5984   19.2413 H           1 TSV       0.0580
     75 H24       -15.2346  -19.5072   20.8842 H           1 TSV       0.0604
     76 H25       -16.3905   -8.3574   10.1570 H           1 TSV       0.0285
     77 H26       -17.6247   -7.1957    9.6630 H           1 TSV       0.0285
     78 H27       -18.2455   -9.3942    8.8899 H           1 TSV       0.0267
     79 H28       -19.4254   -8.8461   10.0660 H           1 TSV       0.0267
     80 H29       -17.1418  -10.6170   11.0128 H           1 TSV       0.0267
     81 H30       -18.4064  -11.3632   10.0576 H           1 TSV       0.0267
     82 H31       -12.1044   -4.4881   10.2965 H           1 TSV       0.0559
     83 H32       -20.1203  -10.9354   11.6118 H           1 TSV       0.0312
     84 H33       -19.1791   -9.7608   12.5234 H           1 TSV       0.0312
     85 H34       -13.1552  -13.3022   13.8512 H           1 TSV       0.0342
     86 H35       -13.6346  -12.9946   12.1698 H           1 TSV       0.0342
     87 H36       -18.6935  -12.7538   12.4080 H           1 TSV       0.0799
     88 H37       -10.5392   -6.3621   12.2728 H           1 TSV       0.0285
     89 H38       -10.6226   -4.4720   12.2660 H           1 TSV       0.0285
     90 H39       -14.6715  -15.0809   12.4092 H           1 TSV       0.0673
     91 H40       -17.0283  -17.8957   16.4666 H           1 TSV       0.0367
     92 H41        -9.6136   -4.4532   10.0366 H           1 TSV       0.0285
     93 H42        -9.5533   -6.3295   10.0417 H           1 TSV       0.0285
     94 H43       -16.4857  -13.7048   11.7602 H           1 TSV       0.0553
     95 H44       -17.1268  -14.2705   13.3345 H           1 TSV       0.0553
@<TRIPOS>BOND
     1     6     1   1
     2     9     1   1
     3    37     2   1
     4     3    36  am
     5    44     3   1
     6     4    24   1
     7    36     4   1
     8    10     5  am
     9     5    14   2
    10     5    19   2
    11     5    39   1
    12     7     6   1
    13     6     9   1
    14     6    12   1
    15    27     7  am
    16    36     8   2
    17     9    15   1
    18    12    10  am
    19    49    11   2
    20    12    25   2
    21    13    28   1
    22    13    47   1
    23    51    13  am
    24    15    26   2
    25    31    16   1
    26    16    49  am
    27    16    50   1
    28    51    17   2
    29    24    18   1
    30    24    20   1
    31    27    21   2
    32    24    22   1
    33    46    23   1
    34    23    51   1
    35    26    29   1
    36    31    27   1
    37    28    40   2
    38    29    34   1
    39    32    30  ar
    40    33    30  ar
    41    43    31   1
    42    40    32  ar
    43    37    33  ar
    44    34    35   1
    45    35    38   1
    46    42    37  ar
    47    38    41   1
    48    39    45   1
    49    39    48   1
    50    42    40  ar
    51    41    44   1
    52    47    42   2
    53    43    46   1
    54    44    49   1
    55    45    48   1
    56    46    50   1
    57     1    52   1
    58     1    53   1
    59     3    54   1
    60     7    55   1
    61     9    56   1
    62    10    57   1
    63    15    58   1
    64    18    59   1
    65    18    60   1
    66    18    61   1
    67    20    62   1
    68    20    63   1
    69    20    64   1
    70    22    65   1
    71    22    66   1
    72    22    67   1
    73    26    68   1
    74    28    69   1
    75    29    70   1
    76    29    71   1
    77    30    72   1
    78    31    73   1
    79    32    74   1
    80    33    75   1
    81    34    76   1
    82    34    77   1
    83    35    78   1
    84    35    79   1
    85    38    80   1
    86    38    81   1
    87    39    82   1
    88    41    83   1
    89    41    84   1
    90    43    85   1
    91    43    86   1
    92    44    87   1
    93    45    88   1
    94    45    89   1
    95    46    90   1
    96    47    91   1
    97    48    92   1
    98    48    93   1
    99    50    94   1
   100    50    95   1
@<TRIPOS>SUBSTRUCTURE
     1  TSV      1

