@<TRIPOS>MOLECULE
3su2_ligand_037
    95   100
SMALL
GAST_HUCK
****
This file was generated by PARSER (from files_GN.cpp)

@<TRIPOS>ATOM
      1 C1        -12.8805   -9.6823    5.9819 C.3         1 TSV      -0.0069
      2 F1        -14.8089   -3.9588   15.5744 F           1 TSV      -0.1836
      3 N1        -17.4675   -4.6022    9.3719 N.am        1 TSV      -0.2412
      4 O1        -16.5797   -2.4627    9.3595 O.3         1 TSV      -0.2580
      5 S1        -14.4360  -14.1178    6.8841 S.o2        1 TSV       0.0645
      6 C2        -14.2216  -10.1337    6.6001 C.3         1 TSV       0.1453
      7 N2        -14.4712   -9.6929    7.9377 N.am        1 TSV      -0.2722
      8 O2        -16.2955   -3.8250    7.4524 O.2         1 TSV      -0.3774
      9 C3        -14.1682   -8.9277    5.6213 C.3         1 TSV       0.0105
     10 N3        -14.0883  -12.4758    7.0508 N.am        1 TSV      -0.1550
     11 O3        -15.7560   -6.7206    8.4175 O.2         1 TSV      -0.3942
     12 C4        -14.5542  -11.5135    6.2611 C.2         1 TSV       0.2463
     13 N4        -14.7154   -8.1323   14.5106 N.am        1 TSV      -0.2075
     14 O4        -13.3194  -14.8333    7.7652 O.2         1 TSV      -0.1503
     15 C5        -14.7571   -9.0499    4.2995 C.2         1 TSV      -0.0942
     16 N5        -16.7990   -7.9899    9.8957 N.am        1 TSV      -0.2469
     17 O5        -15.1147  -10.3588   13.8795 O.2         1 TSV      -0.3166
     18 C6        -14.3405   -1.5343    8.9408 C.3         1 TSV      -0.0320
     19 O6        -14.1090  -14.6465    5.4128 O.2         1 TSV      -0.1503
     20 C7        -16.3745   -0.7113    7.6029 C.3         1 TSV      -0.0320
     21 O7        -16.6719  -10.0181    7.8894 O.2         1 TSV      -0.3947
     22 C8        -16.1870   -0.2130   10.0896 C.3         1 TSV      -0.0320
     23 O8        -16.2720   -8.5832   12.8169 O.3         1 TSV      -0.2338
     24 C9        -15.8719   -1.2561    8.9748 C.3         1 TSV       0.0905
     25 O9        -15.2914  -11.7595    5.3093 O.2         1 TSV      -0.3402
     26 C10       -15.9393   -8.5241    3.9397 C.2         1 TSV      -0.0985
     27 C11       -15.6727   -9.6402    8.4942 C.2         1 TSV       0.2014
     28 C12       -13.6448   -8.3971   15.3016 C.2         1 TSV       0.0391
     29 C13       -16.8447   -7.7384    4.7658 C.3         1 TSV      -0.0365
     30 C14       -12.0376   -5.6203   17.2839 C.ar        1 TSV      -0.0639
     31 C15       -15.8307   -9.0616    9.8255 C.3         1 TSV       0.1363
     32 C16       -12.1862   -6.9383   16.8026 C.ar        1 TSV      -0.0660
     33 C17       -12.9343   -4.6103   16.8650 C.ar        1 TSV      -0.0284
     34 C18       -18.2807   -8.3275    4.8228 C.3         1 TSV      -0.0464
     35 C19       -19.3366   -7.4291    5.5307 C.3         1 TSV      -0.0513
     36 C20       -16.7776   -3.6393    8.7080 C.2         1 TSV       0.3223
     37 C21       -13.9752   -4.8971   15.9610 C.ar        1 TSV       0.1323
     38 C22       -19.1337   -7.2288    7.0620 C.3         1 TSV      -0.0487
     39 C23       -16.0077  -14.7394    7.5299 C.3         1 TSV       0.1004
     40 C24       -13.2325   -7.2199   15.9092 C.ar        1 TSV      -0.0325
     41 C25       -18.3877   -5.9191    7.4557 C.3         1 TSV      -0.0124
     42 C26       -14.1049   -6.2150   15.4871 C.ar        1 TSV       0.0028
     43 C27       -16.3275  -10.1243   10.8331 C.3         1 TSV       0.0206
     44 C28       -17.8324   -5.9185    8.9187 C.3         1 TSV       0.1330
     45 C29       -16.5680  -14.0421    8.7823 C.3         1 TSV      -0.0268
     46 C30       -17.0931   -9.2785   11.8621 C.3         1 TSV       0.1158
     47 C31       -14.9950   -6.8070   14.6011 C.2         1 TSV       0.0402
     48 C32       -17.2702  -13.8658    7.4306 C.3         1 TSV      -0.0268
     49 C33       -16.7523   -6.8987    9.1079 C.2         1 TSV       0.2064
     50 C34       -17.7543   -8.2213   10.9432 C.3         1 TSV       0.0677
     51 C35       -15.3887   -9.0299   13.7623 C.2         1 TSV       0.4317
     52 H1        -12.4538  -10.2940    5.1838 H           1 TSV       0.0300
     53 H2        -12.1966   -9.1482    6.6458 H           1 TSV       0.0300
     54 H3        -17.7610   -4.3562   10.2659 H           1 TSV       0.1899
     55 H4        -13.7216   -9.3634    8.4547 H           1 TSV       0.1841
     56 H5        -14.1551   -7.9265    6.0591 H           1 TSV       0.0435
     57 H6        -13.5202  -12.2108    7.8032 H           1 TSV       0.2148
     58 H7        -14.2407   -9.5509    3.6132 H           1 TSV       0.0452
     59 H8        -13.7824   -0.6082    8.7957 H           1 TSV       0.0260
     60 H9        -14.0890   -2.2093    8.1212 H           1 TSV       0.0260
     61 H10       -14.0173   -1.9968    9.8768 H           1 TSV       0.0260
     62 H11       -15.9152    0.2576    7.3845 H           1 TSV       0.0260
     63 H12       -17.4603   -0.5864    7.6177 H           1 TSV       0.0260
     64 H13       -16.1203   -1.3992    6.7934 H           1 TSV       0.0260
     65 H14       -15.6706    0.7305    9.8914 H           1 TSV       0.0260
     66 H15       -15.8644   -0.5853   11.0669 H           1 TSV       0.0260
     67 H16       -17.2623   -0.0152   10.1358 H           1 TSV       0.0260
     68 H17       -16.2164   -8.6639    2.9957 H           1 TSV       0.0450
     69 H18       -13.1790   -9.3004   15.4041 H           1 TSV       0.0373
     70 H19       -16.8902   -6.7341    4.3441 H           1 TSV       0.0388
     71 H20       -16.4787   -7.6466    5.7888 H           1 TSV       0.0388
     72 H21       -11.2828   -5.3917   17.9310 H           1 TSV       0.0607
     73 H22       -14.8720   -8.6640   10.1833 H           1 TSV       0.0803
     74 H23       -11.5534   -7.6776   17.1194 H           1 TSV       0.0580
     75 H24       -12.8449   -3.6669   17.2401 H           1 TSV       0.0604
     76 H25       -18.2464   -9.3024    5.3186 H           1 TSV       0.0285
     77 H26       -18.6293   -8.4934    3.7993 H           1 TSV       0.0285
     78 H27       -20.3072   -7.9119    5.3880 H           1 TSV       0.0267
     79 H28       -19.3877   -6.4611    5.0291 H           1 TSV       0.0267
     80 H29       -18.6122   -8.0979    7.4683 H           1 TSV       0.0267
     81 H30       -20.1143   -7.2005    7.5470 H           1 TSV       0.0267
     82 H31       -16.1761  -15.8188    7.4993 H           1 TSV       0.0559
     83 H32       -19.0838   -5.0852    7.3457 H           1 TSV       0.0312
     84 H33       -17.5688   -5.7407    6.7635 H           1 TSV       0.0312
     85 H34       -15.4937  -10.6901   11.2513 H           1 TSV       0.0342
     86 H35       -17.0280  -10.8300   10.3727 H           1 TSV       0.0342
     87 H36       -18.6799   -6.1883    9.5511 H           1 TSV       0.0799
     88 H37       -16.0358  -13.1607    9.1469 H           1 TSV       0.0285
     89 H38       -17.0857  -14.6880    9.4929 H           1 TSV       0.0285
     90 H39       -17.8359   -9.8751   12.3952 H           1 TSV       0.0673
     91 H40       -15.7614   -6.3180   14.1336 H           1 TSV       0.0367
     92 H41       -18.2191  -14.3988    7.3436 H           1 TSV       0.0285
     93 H42       -17.1723  -12.8667    7.0040 H           1 TSV       0.0285
     94 H43       -18.6853   -8.6123   10.5201 H           1 TSV       0.0553
     95 H44       -17.9695   -7.3123   11.5160 H           1 TSV       0.0553
@<TRIPOS>BOND
     1     6     1   1
     2     9     1   1
     3    37     2   1
     4     3    36  am
     5    44     3   1
     6     4    24   1
     7    36     4   1
     8    10     5  am
     9     5    14   2
    10     5    19   2
    11     5    39   1
    12     7     6   1
    13     6     9   1
    14     6    12   1
    15    27     7  am
    16    36     8   2
    17     9    15   1
    18    12    10  am
    19    49    11   2
    20    12    25   2
    21    13    28   1
    22    13    47   1
    23    51    13  am
    24    15    26   2
    25    31    16   1
    26    16    49  am
    27    16    50   1
    28    51    17   2
    29    24    18   1
    30    24    20   1
    31    27    21   2
    32    24    22   1
    33    46    23   1
    34    23    51   1
    35    26    29   1
    36    31    27   1
    37    28    40   2
    38    29    34   1
    39    32    30  ar
    40    33    30  ar
    41    43    31   1
    42    40    32  ar
    43    37    33  ar
    44    34    35   1
    45    35    38   1
    46    42    37  ar
    47    38    41   1
    48    39    45   1
    49    39    48   1
    50    42    40  ar
    51    41    44   1
    52    47    42   2
    53    43    46   1
    54    44    49   1
    55    45    48   1
    56    46    50   1
    57     1    52   1
    58     1    53   1
    59     3    54   1
    60     7    55   1
    61     9    56   1
    62    10    57   1
    63    15    58   1
    64    18    59   1
    65    18    60   1
    66    18    61   1
    67    20    62   1
    68    20    63   1
    69    20    64   1
    70    22    65   1
    71    22    66   1
    72    22    67   1
    73    26    68   1
    74    28    69   1
    75    29    70   1
    76    29    71   1
    77    30    72   1
    78    31    73   1
    79    32    74   1
    80    33    75   1
    81    34    76   1
    82    34    77   1
    83    35    78   1
    84    35    79   1
    85    38    80   1
    86    38    81   1
    87    39    82   1
    88    41    83   1
    89    41    84   1
    90    43    85   1
    91    43    86   1
    92    44    87   1
    93    45    88   1
    94    45    89   1
    95    46    90   1
    96    47    91   1
    97    48    92   1
    98    48    93   1
    99    50    94   1
   100    50    95   1
@<TRIPOS>SUBSTRUCTURE
     1  TSV      1

