@<TRIPOS>MOLECULE
3su3_ligand_016
   106   111
SMALL
GAST_HUCK
****
This file was generated by PARSER (from files_GN.cpp)

@<TRIPOS>ATOM
      1 C          -9.2589   -9.0531    8.0647 C.2         1 SU3       0.2013
      2 N          -9.8647   -7.1724    9.5555 N.am        1 SU3      -0.2469
      3 O          -9.1111   -9.9631    8.8683 O.2         1 SU3      -0.3947
      4 CA        -10.2312   -7.9950    8.4046 C.3         1 SU3       0.1363
      5 CB        -10.5219   -6.9590    7.2805 C.3         1 SU3       0.0206
      6 CG        -10.8702   -5.6681    8.0362 C.3         1 SU3       0.1158
      7 CAF        -9.6356   -7.6429   10.7976 C.2         1 SU3       0.2070
      8 OAG       -10.0095   -8.7845   11.0605 O.2         1 SU3      -0.3942
      9 CAH        -8.9981   -6.9196   11.9152 C.3         1 SU3       0.1378
     10 NAI        -9.9099   -6.9577   13.0304 N.am        1 SU3      -0.2407
     11 CAJ       -10.4370   -5.8752   13.6432 C.2         1 SU3       0.3218
     12 OAK       -11.1072   -6.0748   14.8047 O.3         1 SU3      -0.2633
     13 CAL        -7.5189   -7.3916   12.2983 C.3         1 SU3       0.0025
     14 OAM       -10.2575   -4.6221   13.1612 O.2         1 SU3      -0.3774
     15 CAO       -13.3594   -5.4678    7.7301 C.2         1 SU3       0.4317
     16 OAP       -13.2441   -5.2673    6.3943 O.2         1 SU3      -0.3166
     17 NAQ       -14.5823   -5.4742    8.3226 N.am        1 SU3      -0.2080
     18 CAR        -6.4494  -11.0514    4.2295 C.3         1 SU3      -0.0516
     19 CAS        -7.4971  -11.8131    3.3947 C.3         1 SU3      -0.0651
     20 CAT        -6.4754   -6.5241   11.5112 C.3         1 SU3      -0.0558
     21 NAV        -8.5701   -9.0970    6.9259 N.am        1 SU3      -0.2737
     22 CAX        -7.5277  -10.0257    6.5493 C.3         1 SU3       0.1374
     23 CAY        -7.5040  -11.3807    7.0802 C.2         1 SU3       0.2444
     24 CAZ        -7.0964   -9.9053    5.0628 C.3         1 SU3      -0.0066
     25 CBA        -6.2083   -9.3120    6.1709 C.3         1 SU3      -0.0152
     26 CBB       -15.7685   -5.2945    7.7011 C.2         1 SU3       0.0383
     27 CBC       -16.7845   -5.3612    8.6441 C.ar        1 SU3      -0.0374
     28 CBD       -16.1888   -5.5988    9.8828 C.ar        1 SU3      -0.0293
     29 CBE       -14.8177   -5.6576    9.6414 C.2         1 SU3       0.0366
     30 CBF       -18.1784   -5.2248    8.5169 C.ar        1 SU3      -0.0689
     31 CBG       -18.9713   -5.3266    9.6723 C.ar        1 SU3      -0.0688
     32 CBH       -18.3716   -5.5688   10.9321 C.ar        1 SU3      -0.0606
     33 CBI       -16.9698   -5.7176   11.0590 C.ar        1 SU3      -0.0432
     34 CBJ       -16.3536   -5.9561   12.3942 C.3         1 SU3      -0.0194
     35 NBK        -6.4394  -11.8475    7.7163 N.am        1 SU3      -0.1552
     36 OBL        -8.5214  -12.0487    6.9587 O.2         1 SU3      -0.3404
     37 SBM        -6.3078  -13.3998    8.3600 S.o2        1 SU3       0.0645
     38 CBN        -4.6647  -13.5889    9.0879 C.3         1 SU3       0.1004
     39 OBO        -7.4477  -13.6266    9.4476 O.2         1 SU3      -0.1503
     40 OBP        -6.4325  -14.4465    7.1689 O.2         1 SU3      -0.1503
     41 CBQ        -4.5214  -13.8602   10.5930 C.3         1 SU3      -0.0268
     42 CBR        -4.3006  -14.9953    9.5862 C.3         1 SU3      -0.0268
     43 CBS       -16.1612   -4.6302   13.1774 C.3         1 SU3      -0.0433
     44 CBT       -15.4827   -4.8058   14.5636 C.3         1 SU3      -0.0507
     45 CBU       -13.9319   -4.9663   14.5130 C.3         1 SU3      -0.0453
     46 CBV       -13.1990   -5.2265   15.8832 C.3         1 SU3      -0.0072
     47 CBW       -11.6516   -5.0815   15.6863 C.3         1 SU3       0.0824
     48 CBX       -13.6324   -4.1742   16.9546 C.3         1 SU3      -0.0574
     49 CBY       -13.4983   -6.6640   16.4200 C.3         1 SU3      -0.0574
     50 CBZ        -7.2253   -7.1820   13.8225 C.3         1 SU3      -0.0558
     51 CCA        -7.2232   -8.8971   11.9883 C.3         1 SU3      -0.0558
     52 CD1        -9.9398   -5.7668    9.2531 C.3         1 SU3       0.0677
     53 OD2       -12.2396   -5.6444    8.4789 O.3         1 SU3      -0.2338
     54 H1        -11.1867   -8.4794    8.6382 H           1 SU3       0.0803
     55 H2        -11.3320   -7.2844    6.6215 H           1 SU3       0.0342
     56 H3         -9.6439   -6.7445    6.6662 H           1 SU3       0.0342
     57 H4        -10.6507   -4.7681    7.4525 H           1 SU3       0.0673
     58 H5         -8.8921   -5.8788   11.6159 H           1 SU3       0.0805
     59 H6        -10.0660   -7.8232   13.4461 H           1 SU3       0.1899
     60 H7         -5.7107  -10.6158    3.5519 H           1 SU3       0.0265
     61 H8         -5.9267  -11.7618    4.8714 H           1 SU3       0.0265
     62 H9         -6.9981  -12.5238    2.7366 H           1 SU3       0.0230
     63 H10        -8.0768  -11.1230    2.7819 H           1 SU3       0.0230
     64 H11        -8.1740  -12.3625    4.0474 H           1 SU3       0.0230
     65 H12        -5.4515   -6.8587   11.7019 H           1 SU3       0.0237
     66 H13        -6.5382   -5.4737   11.8112 H           1 SU3       0.0237
     67 H14        -6.6586   -6.5737   10.4379 H           1 SU3       0.0237
     68 H15        -8.7474   -8.3931    6.2874 H           1 SU3       0.1839
     69 H16        -7.5873   -9.1185    4.4862 H           1 SU3       0.0312
     70 H17        -5.2660   -9.8322    6.3404 H           1 SU3       0.0279
     71 H18        -6.2024   -8.2194    6.2133 H           1 SU3       0.0279
     72 H19       -15.9134   -5.1282    6.7009 H           1 SU3       0.0373
     73 H20       -14.1046   -5.8104   10.3585 H           1 SU3       0.0361
     74 H21       -18.6031   -5.0472    7.6029 H           1 SU3       0.0557
     75 H22       -19.9852   -5.2219    9.6045 H           1 SU3       0.0599
     76 H23       -18.9742   -5.6310   11.7571 H           1 SU3       0.0557
     77 H24       -15.3938   -6.4604   12.2814 H           1 SU3       0.0426
     78 H25       -16.9933   -6.6290   12.9719 H           1 SU3       0.0426
     79 H26        -5.6571  -11.2812    7.7713 H           1 SU3       0.2148
     80 H27        -3.8321  -13.0657    8.6136 H           1 SU3       0.0559
     81 H28        -5.4349  -13.9421   11.1825 H           1 SU3       0.0285
     82 H29        -3.6140  -13.4812   11.0650 H           1 SU3       0.0285
     83 H30        -3.2600  -15.3013    9.4615 H           1 SU3       0.0285
     84 H31        -5.0844  -15.7555    9.5653 H           1 SU3       0.0285
     85 H32       -17.1477   -4.1856   13.3408 H           1 SU3       0.0287
     86 H33       -15.5800   -3.9240   12.5763 H           1 SU3       0.0287
     87 H34       -15.9340   -5.6580   15.0744 H           1 SU3       0.0267
     88 H35       -15.7170   -3.9118   15.1463 H           1 SU3       0.0267
     89 H36       -13.5298   -4.0499   14.0686 H           1 SU3       0.0271
     90 H37       -13.6860   -5.7814   13.8284 H           1 SU3       0.0271
     91 H38       -11.4195   -4.0705   15.3385 H           1 SU3       0.0617
     92 H39       -11.1366   -5.2100   16.6426 H           1 SU3       0.0617
     93 H40       -14.6682   -4.3250   17.2654 H           1 SU3       0.0236
     94 H41       -13.5329   -3.1612   16.5593 H           1 SU3       0.0236
     95 H42       -13.0077   -4.2515   17.8430 H           1 SU3       0.0236
     96 H43       -13.2322   -7.4206   15.6783 H           1 SU3       0.0236
     97 H44       -14.5541   -6.7807   16.6543 H           1 SU3       0.0236
     98 H45       -12.9316   -6.8675   17.3320 H           1 SU3       0.0236
     99 H46        -7.8544   -7.8329   14.4371 H           1 SU3       0.0237
    100 H47        -7.4141   -6.1464   14.1214 H           1 SU3       0.0237
    101 H48        -6.1840   -7.4180   14.0606 H           1 SU3       0.0237
    102 H49        -7.3467   -9.1129   10.9309 H           1 SU3       0.0237
    103 H50        -7.8943   -9.5458   12.5481 H           1 SU3       0.0237
    104 H51        -6.1982   -9.1626   12.2533 H           1 SU3       0.0237
    105 H52        -8.9409   -5.3878    9.0187 H           1 SU3       0.0553
    106 H53       -10.3695   -5.1745   10.0663 H           1 SU3       0.0553
@<TRIPOS>BOND
     1     1     3   2
     2     1     4   1
     3    21     1  am
     4     4     2   1
     5     2     7  am
     6     2    52   1
     7     4     5   1
     8     5     6   1
     9     6    52   1
    10     6    53   1
    11     7     8   2
    12     7     9   1
    13     9    10   1
    14     9    13   1
    15    10    11  am
    16    11    12   1
    17    11    14   2
    18    12    47   1
    19    13    20   1
    20    13    50   1
    21    13    51   1
    22    15    16   2
    23    15    17  am
    24    53    15   1
    25    17    26   1
    26    17    29   1
    27    18    19   1
    28    24    18   1
    29    22    21   1
    30    22    23   1
    31    22    24   1
    32    22    25   1
    33    23    35  am
    34    23    36   2
    35    24    25   1
    36    26    27   2
    37    27    28  ar
    38    27    30  ar
    39    28    29   2
    40    28    33  ar
    41    30    31  ar
    42    31    32  ar
    43    32    33  ar
    44    33    34   1
    45    34    43   1
    46    35    37  am
    47    37    38   1
    48    37    39   2
    49    37    40   2
    50    38    41   1
    51    38    42   1
    52    41    42   1
    53    43    44   1
    54    44    45   1
    55    45    46   1
    56    46    47   1
    57    46    48   1
    58    46    49   1
    59     4    54   1
    60     5    55   1
    61     5    56   1
    62     6    57   1
    63     9    58   1
    64    10    59   1
    65    18    60   1
    66    18    61   1
    67    19    62   1
    68    19    63   1
    69    19    64   1
    70    20    65   1
    71    20    66   1
    72    20    67   1
    73    21    68   1
    74    24    69   1
    75    25    70   1
    76    25    71   1
    77    26    72   1
    78    29    73   1
    79    30    74   1
    80    31    75   1
    81    32    76   1
    82    34    77   1
    83    34    78   1
    84    35    79   1
    85    38    80   1
    86    41    81   1
    87    41    82   1
    88    42    83   1
    89    42    84   1
    90    43    85   1
    91    43    86   1
    92    44    87   1
    93    44    88   1
    94    45    89   1
    95    45    90   1
    96    47    91   1
    97    47    92   1
    98    48    93   1
    99    48    94   1
   100    48    95   1
   101    49    96   1
   102    49    97   1
   103    49    98   1
   104    50    99   1
   105    50   100   1
   106    50   101   1
   107    51   102   1
   108    51   103   1
   109    51   104   1
   110    52   105   1
   111    52   106   1
@<TRIPOS>SUBSTRUCTURE
     1  SU3      1

