@<TRIPOS>MOLECULE
3su3_ligand_023
   106   111
SMALL
GAST_HUCK
****
This file was generated by PARSER (from files_GN.cpp)

@<TRIPOS>ATOM
      1 C          -7.1500   -4.5026    7.1910 C.2         1 SU3       0.2013
      2 N          -8.6830   -6.3475    6.4687 N.am        1 SU3      -0.2469
      3 O          -8.0844   -3.7116    7.1932 O.2         1 SU3      -0.3947
      4 CA         -7.3630   -5.9246    6.9095 C.3         1 SU3       0.1363
      5 CB         -6.4016   -6.4105    5.7906 C.3         1 SU3       0.0206
      6 CG         -7.1473   -7.5818    5.1454 C.3         1 SU3       0.1158
      7 CAF        -9.8229   -6.1488    7.1581 C.2         1 SU3       0.2070
      8 OAG        -9.7368   -5.7073    8.3022 O.2         1 SU3      -0.3942
      9 CAH       -11.1935   -6.3951    6.6623 C.3         1 SU3       0.1378
     10 NAI       -11.8036   -7.3769    7.5185 N.am        1 SU3      -0.2407
     11 CAJ       -12.4245   -8.5184    7.1525 C.2         1 SU3       0.3218
     12 OAK       -13.0860   -9.1842    8.1349 O.3         1 SU3      -0.2633
     13 CAL       -12.1177   -5.1070    6.5181 C.3         1 SU3       0.0025
     14 OAM       -12.4836   -8.9326    5.8645 O.2         1 SU3      -0.3774
     15 CAO        -5.8929   -9.6019    6.0099 C.2         1 SU3       0.4317
     16 OAP        -4.7605   -9.2945    5.3297 O.2         1 SU3      -0.3166
     17 NAQ        -5.9592  -10.7037    6.7934 N.am        1 SU3      -0.2080
     18 CAR        -3.1922   -1.4387    8.2294 C.3         1 SU3      -0.0516
     19 CAS        -1.6946   -1.7803    8.0851 C.3         1 SU3      -0.0651
     20 CAT       -13.2672   -5.4038    5.4942 C.3         1 SU3      -0.0558
     21 NAV        -5.9245   -4.0824    7.4935 N.am        1 SU3      -0.2737
     22 CAX        -5.5367   -2.7443    7.8339 C.3         1 SU3       0.1374
     23 CAY        -5.9649   -2.2312    9.1322 C.2         1 SU3       0.2444
     24 CAZ        -4.0890   -2.4023    7.3994 C.3         1 SU3      -0.0066
     25 CBA        -5.2798   -1.8199    6.6222 C.3         1 SU3      -0.0152
     26 CBB        -4.9868  -11.6301    6.9680 C.2         1 SU3       0.0383
     27 CBC        -5.4580  -12.6158    7.8225 C.ar        1 SU3      -0.0374
     28 CBD        -6.7550  -12.2639    8.1991 C.ar        1 SU3      -0.0293
     29 CBE        -7.0308  -11.0723    7.5354 C.2         1 SU3       0.0366
     30 CBF        -4.8592  -13.7973    8.2927 C.ar        1 SU3      -0.0689
     31 CBG        -5.5933  -14.6224    9.1639 C.ar        1 SU3      -0.0688
     32 CBH        -6.9026  -14.2620    9.5580 C.ar        1 SU3      -0.0606
     33 CBI        -7.5127  -13.0735    9.0808 C.ar        1 SU3      -0.0432
     34 CBJ        -8.8877  -12.7070    9.5260 C.3         1 SU3      -0.0194
     35 NBK        -6.5756   -1.0660    9.2795 N.am        1 SU3      -0.1552
     36 OBL        -5.7379   -2.9469   10.1036 O.2         1 SU3      -0.3404
     37 SBM        -7.0470   -0.3573   10.7360 S.o2        1 SU3       0.0645
     38 CBN        -8.2681    0.9354   10.4019 C.3         1 SU3       0.1004
     39 OBO        -7.7159   -1.4321   11.7088 O.2         1 SU3      -0.1503
     40 OBP        -5.7723    0.2687   11.4516 O.2         1 SU3      -0.1503
     41 CBQ        -9.5648    0.9979   11.2256 C.3         1 SU3      -0.0268
     42 CBR        -8.4567    2.0268   11.4670 C.3         1 SU3      -0.0268
     43 CBS        -9.9837  -13.6139    8.9005 C.3         1 SU3      -0.0433
     44 CBT       -11.4345  -13.2382    9.3165 C.3         1 SU3      -0.0507
     45 CBU       -12.0200  -11.9925    8.5830 C.3         1 SU3      -0.0453
     46 CBV       -13.4546  -11.5022    9.0129 C.3         1 SU3      -0.0072
     47 CBW       -13.9130  -10.3564    8.0442 C.3         1 SU3       0.0824
     48 CBX       -14.5033  -12.6591    8.9125 C.3         1 SU3      -0.0574
     49 CBY       -13.4471  -10.9552   10.4790 C.3         1 SU3      -0.0574
     50 CBZ       -12.7859   -4.6808    7.8682 C.3         1 SU3      -0.0558
     51 CCA       -11.3164   -3.8820    5.9617 C.3         1 SU3      -0.0558
     52 CD1        -8.6078   -7.1171    5.2546 C.3         1 SU3       0.0677
     53 OD2        -6.9847   -8.7954    5.8936 O.3         1 SU3      -0.2338
     54 H1         -7.1349   -6.4840    7.8217 H           1 SU3       0.0803
     55 H2         -5.4310   -6.7179    6.1876 H           1 SU3       0.0342
     56 H3         -6.2360   -5.6361    5.0324 H           1 SU3       0.0342
     57 H4         -6.8571   -7.7413    4.1029 H           1 SU3       0.0673
     58 H5        -11.1230   -6.8122    5.6604 H           1 SU3       0.0805
     59 H6        -11.8490   -7.1525    8.4635 H           1 SU3       0.1899
     60 H7         -3.3469   -0.3969    7.9329 H           1 SU3       0.0265
     61 H8         -3.4670   -1.5289    9.2843 H           1 SU3       0.0265
     62 H9         -1.0900   -1.0554    8.6310 H           1 SU3       0.0230
     63 H10        -1.4015   -1.7615    7.0344 H           1 SU3       0.0230
     64 H11        -1.5041   -2.7757    8.4933 H           1 SU3       0.0230
     65 H12       -13.9298   -4.5411    5.3852 H           1 SU3       0.0237
     66 H13       -13.8716   -6.2537    5.8168 H           1 SU3       0.0237
     67 H14       -12.8573   -5.6351    4.5053 H           1 SU3       0.0237
     68 H15        -5.2069   -4.7352    7.4224 H           1 SU3       0.1839
     69 H16        -3.5807   -3.2133    6.8784 H           1 SU3       0.0312
     70 H17        -5.4502   -0.7511    6.7417 H           1 SU3       0.0279
     71 H18        -5.4247   -2.2500    5.6279 H           1 SU3       0.0279
     72 H19        -4.0620  -11.6260    6.5297 H           1 SU3       0.0373
     73 H20        -7.9124  -10.5577    7.5932 H           1 SU3       0.0361
     74 H21        -3.9102  -14.0517    8.0037 H           1 SU3       0.0557
     75 H22        -5.1769  -15.4878    9.5143 H           1 SU3       0.0599
     76 H23        -7.4070  -14.8766   10.1998 H           1 SU3       0.0557
     77 H24        -9.1017  -11.6689    9.2756 H           1 SU3       0.0426
     78 H25        -8.9311  -12.7793   10.6160 H           1 SU3       0.0426
     79 H26        -6.7079   -0.5242    8.4848 H           1 SU3       0.2148
     80 H27        -8.3488    1.3031    9.3769 H           1 SU3       0.0559
     81 H28        -9.6967    0.2820   12.0400 H           1 SU3       0.0285
     82 H29       -10.4469    1.3967   10.7181 H           1 SU3       0.0285
     83 H30        -8.6693    3.0310   11.0906 H           1 SU3       0.0285
     84 H31        -7.9093    1.9116   12.4058 H           1 SU3       0.0285
     85 H32        -9.8007  -14.6435    9.2210 H           1 SU3       0.0287
     86 H33        -9.9027  -13.5902    7.8100 H           1 SU3       0.0287
     87 H34       -11.4614  -13.0871   10.3975 H           1 SU3       0.0267
     88 H35       -12.0681  -14.0988    9.0887 H           1 SU3       0.0267
     89 H36       -12.0374  -12.2286    7.5149 H           1 SU3       0.0271
     90 H37       -11.3254  -11.1601    8.7100 H           1 SU3       0.0271
     91 H38       -13.9454  -10.7297    7.0162 H           1 SU3       0.0617
     92 H39       -14.9273  -10.0420    8.3028 H           1 SU3       0.0617
     93 H40       -14.2978  -13.4473    9.6393 H           1 SU3       0.0236
     94 H41       -14.4941  -13.1023    7.9139 H           1 SU3       0.0236
     95 H42       -15.5124  -12.2886    9.1106 H           1 SU3       0.0236
     96 H43       -12.6846  -10.1831   10.6030 H           1 SU3       0.0236
     97 H44       -13.2434  -11.7496   11.1994 H           1 SU3       0.0236
     98 H45       -14.4155  -10.5189   10.7342 H           1 SU3       0.0236
     99 H46       -12.0365   -4.4926    8.6366 H           1 SU3       0.0237
    100 H47       -13.4601   -5.4584    8.2366 H           1 SU3       0.0237
    101 H48       -13.3723   -3.7676    7.7407 H           1 SU3       0.0237
    102 H49       -10.7563   -4.1586    5.0664 H           1 SU3       0.0237
    103 H50       -10.6119   -3.5112    6.7086 H           1 SU3       0.0237
    104 H51       -11.9839   -3.0555    5.7071 H           1 SU3       0.0237
    105 H52        -8.8810   -6.4890    4.4006 H           1 SU3       0.0553
    106 H53        -9.2489   -8.0043    5.2714 H           1 SU3       0.0553
@<TRIPOS>BOND
     1     1     3   2
     2     1     4   1
     3    21     1  am
     4     4     2   1
     5     2     7  am
     6     2    52   1
     7     4     5   1
     8     5     6   1
     9     6    52   1
    10     6    53   1
    11     7     8   2
    12     7     9   1
    13     9    10   1
    14     9    13   1
    15    10    11  am
    16    11    12   1
    17    11    14   2
    18    12    47   1
    19    13    20   1
    20    13    50   1
    21    13    51   1
    22    15    16   2
    23    15    17  am
    24    53    15   1
    25    17    26   1
    26    17    29   1
    27    18    19   1
    28    24    18   1
    29    22    21   1
    30    22    23   1
    31    22    24   1
    32    22    25   1
    33    23    35  am
    34    23    36   2
    35    24    25   1
    36    26    27   2
    37    27    28  ar
    38    27    30  ar
    39    28    29   2
    40    28    33  ar
    41    30    31  ar
    42    31    32  ar
    43    32    33  ar
    44    33    34   1
    45    34    43   1
    46    35    37  am
    47    37    38   1
    48    37    39   2
    49    37    40   2
    50    38    41   1
    51    38    42   1
    52    41    42   1
    53    43    44   1
    54    44    45   1
    55    45    46   1
    56    46    47   1
    57    46    48   1
    58    46    49   1
    59     4    54   1
    60     5    55   1
    61     5    56   1
    62     6    57   1
    63     9    58   1
    64    10    59   1
    65    18    60   1
    66    18    61   1
    67    19    62   1
    68    19    63   1
    69    19    64   1
    70    20    65   1
    71    20    66   1
    72    20    67   1
    73    21    68   1
    74    24    69   1
    75    25    70   1
    76    25    71   1
    77    26    72   1
    78    29    73   1
    79    30    74   1
    80    31    75   1
    81    32    76   1
    82    34    77   1
    83    34    78   1
    84    35    79   1
    85    38    80   1
    86    41    81   1
    87    41    82   1
    88    42    83   1
    89    42    84   1
    90    43    85   1
    91    43    86   1
    92    44    87   1
    93    44    88   1
    94    45    89   1
    95    45    90   1
    96    47    91   1
    97    47    92   1
    98    48    93   1
    99    48    94   1
   100    48    95   1
   101    49    96   1
   102    49    97   1
   103    49    98   1
   104    50    99   1
   105    50   100   1
   106    50   101   1
   107    51   102   1
   108    51   103   1
   109    51   104   1
   110    52   105   1
   111    52   106   1
@<TRIPOS>SUBSTRUCTURE
     1  SU3      1

