@<TRIPOS>MOLECULE
3su3_ligand_050
   106   111
SMALL
GAST_HUCK
****
This file was generated by PARSER (from files_GN.cpp)

@<TRIPOS>ATOM
      1 C         -13.4313   -9.3764   13.3869 C.2         1 SU3       0.2013
      2 N         -15.6192  -10.4598   13.6752 N.am        1 SU3      -0.2469
      3 O         -13.7554   -8.2019   13.5134 O.2         1 SU3      -0.3947
      4 CA        -14.2218  -10.4199   14.0655 C.3         1 SU3       0.1363
      5 CB        -13.7123  -11.8717   13.8279 C.3         1 SU3       0.0206
      6 CG        -14.9837  -12.7301   13.7780 C.3         1 SU3       0.1158
      7 CAF       -16.4976   -9.4615   13.8866 C.2         1 SU3       0.2070
      8 OAG       -16.2047   -8.5955   14.7039 O.2         1 SU3      -0.3942
      9 CAH       -17.7932   -9.3056   13.2044 C.3         1 SU3       0.1378
     10 NAI       -18.8309   -9.2798   14.2038 N.am        1 SU3      -0.2407
     11 CAJ       -19.9071  -10.0955   14.2556 C.2         1 SU3       0.3218
     12 OAK       -20.8608   -9.7909   15.1690 O.3         1 SU3      -0.2633
     13 CAL       -17.8972   -8.0685   12.2167 C.3         1 SU3       0.0025
     14 OAM       -20.0855  -11.1175   13.3830 O.2         1 SU3      -0.3774
     15 CAO       -14.8390  -14.0658   15.9029 C.2         1 SU3       0.4317
     16 OAP       -13.7225  -14.7189   15.4976 O.2         1 SU3      -0.3166
     17 NAQ       -15.4093  -14.3554   17.1015 N.am        1 SU3      -0.2080
     18 CAR        -9.2171   -9.0942   10.4724 C.3         1 SU3      -0.0516
     19 CAS        -8.1853   -9.1135   11.6191 C.3         1 SU3      -0.0651
     20 CAT       -17.7284   -6.6862   12.9297 C.3         1 SU3      -0.0558
     21 NAV       -12.3219   -9.6498   12.7116 N.am        1 SU3      -0.2737
     22 CAX       -11.5190   -8.7265   11.9608 C.3         1 SU3       0.1374
     23 CAY       -10.9668   -7.5570   12.6533 C.2         1 SU3       0.2444
     24 CAZ       -10.6312   -9.5100   10.9504 C.3         1 SU3      -0.0066
     25 CBA       -11.8229   -8.6739   10.4442 C.3         1 SU3      -0.0152
     26 CBB       -14.9833  -15.2834   17.9887 C.2         1 SU3       0.0383
     27 CBC       -15.8687  -15.3162   19.0597 C.ar        1 SU3      -0.0374
     28 CBD       -16.8499  -14.3562   18.8197 C.ar        1 SU3      -0.0293
     29 CBE       -16.5278  -13.7783   17.5927 C.2         1 SU3       0.0366
     30 CBF       -15.9091  -16.1264   20.2069 C.ar        1 SU3      -0.0689
     31 CBG       -16.9695  -15.9497   21.1166 C.ar        1 SU3      -0.0688
     32 CBH       -17.9640  -14.9763   20.8769 C.ar        1 SU3      -0.0606
     33 CBI       -17.9189  -14.1503   19.7225 C.ar        1 SU3      -0.0432
     34 CBJ       -18.9886  -13.1471   19.4691 C.3         1 SU3      -0.0194
     35 NBK       -10.1445   -6.6916   12.0737 N.am        1 SU3      -0.1552
     36 OBL       -11.2987   -7.3943   13.8233 O.2         1 SU3      -0.3404
     37 SBM        -9.4612   -5.3370   12.8152 S.o2        1 SU3       0.0645
     38 CBN        -8.0519   -4.6081   11.9473 C.3         1 SU3       0.1004
     39 OBO       -10.5610   -4.2109   13.0324 O.2         1 SU3      -0.1503
     40 OBP        -8.8755   -5.7099   14.2460 O.2         1 SU3      -0.1503
     41 CBQ        -7.0035   -5.5876   11.3936 C.3         1 SU3      -0.0268
     42 CBR        -7.9140   -4.8134   10.4302 C.3         1 SU3      -0.0268
     43 CBS       -20.2369  -13.7949   18.8124 C.3         1 SU3      -0.0433
     44 CBT       -21.3880  -12.7908   18.5166 C.3         1 SU3      -0.0507
     45 CBU       -21.2409  -12.0152   17.1756 C.3         1 SU3      -0.0453
     46 CBV       -22.3172  -10.9042   16.8680 C.3         1 SU3      -0.0072
     47 CBW       -22.1341  -10.4161   15.3904 C.3         1 SU3       0.0824
     48 CBX       -23.7728  -11.4625   17.0040 C.3         1 SU3      -0.0574
     49 CBY       -22.1514   -9.6822   17.8309 C.3         1 SU3      -0.0574
     50 CBZ       -16.8171   -8.1828   11.0867 C.3         1 SU3      -0.0558
     51 CCA       -19.3011   -8.0788   11.5150 C.3         1 SU3      -0.0558
     52 CD1       -16.0034  -11.7514   13.1747 C.3         1 SU3       0.0677
     53 OD2       -15.4149  -13.1422   15.0850 O.3         1 SU3      -0.2338
     54 H1        -14.1764  -10.2261   15.1425 H           1 SU3       0.0803
     55 H2        -13.0247  -12.1967   14.6133 H           1 SU3       0.0342
     56 H3        -13.2124  -11.9859   12.8621 H           1 SU3       0.0342
     57 H4        -14.8671  -13.6110   13.1366 H           1 SU3       0.0673
     58 H5        -17.9457  -10.1754   12.5656 H           1 SU3       0.0805
     59 H6        -18.7936   -8.5687   14.8673 H           1 SU3       0.1899
     60 H7         -8.8961   -9.8059    9.7085 H           1 SU3       0.0265
     61 H8         -9.2157   -8.1087   10.0059 H           1 SU3       0.0265
     62 H9         -7.2020   -8.8335   11.2491 H           1 SU3       0.0230
     63 H10        -8.1172  -10.1161   12.0363 H           1 SU3       0.0230
     64 H11        -8.4585   -8.4159   12.4115 H           1 SU3       0.0230
     65 H12       -17.9171   -5.8651   12.2348 H           1 SU3       0.0237
     66 H13       -16.7159   -6.5576   13.3117 H           1 SU3       0.0237
     67 H14       -18.4267   -6.5895   13.7630 H           1 SU3       0.0237
     68 H15       -12.0293  -10.5732   12.6977 H           1 SU3       0.1839
     69 H16       -10.8310  -10.5854   10.8929 H           1 SU3       0.0312
     70 H17       -11.5916   -7.7475    9.9214 H           1 SU3       0.0279
     71 H18       -12.6938   -9.2398   10.1105 H           1 SU3       0.0279
     72 H19       -14.1702  -15.8941   17.8880 H           1 SU3       0.0373
     73 H20       -17.0743  -13.0497   17.1293 H           1 SU3       0.0361
     74 H21       -15.1895  -16.8342   20.3739 H           1 SU3       0.0557
     75 H22       -17.0214  -16.5343   21.9552 H           1 SU3       0.0599
     76 H23       -18.7294  -14.8772   21.5487 H           1 SU3       0.0557
     77 H24       -18.6140  -12.3472   18.8283 H           1 SU3       0.0426
     78 H25       -19.2756  -12.6784   20.4149 H           1 SU3       0.0426
     79 H26        -9.9487   -6.8177   11.1311 H           1 SU3       0.2148
     80 H27        -7.6271   -3.6859   12.3433 H           1 SU3       0.0559
     81 H28        -7.2213   -6.6498   11.4874 H           1 SU3       0.0285
     82 H29        -5.9649   -5.2503   11.4223 H           1 SU3       0.0285
     83 H30        -7.4181   -4.0154    9.8750 H           1 SU3       0.0285
     84 H31        -8.6729   -5.4116    9.9287 H           1 SU3       0.0285
     85 H32       -20.6202  -14.5614   19.4920 H           1 SU3       0.0287
     86 H33       -19.9481  -14.3007   17.8863 H           1 SU3       0.0287
     87 H34       -21.4675  -12.0853   19.3451 H           1 SU3       0.0267
     88 H35       -22.3174  -13.3645   18.4807 H           1 SU3       0.0267
     89 H36       -21.2646  -12.7576   16.3723 H           1 SU3       0.0271
     90 H37       -20.2494  -11.5555   17.1514 H           1 SU3       0.0271
     91 H38       -22.2815  -11.2512   14.6989 H           1 SU3       0.0617
     92 H39       -22.8914   -9.6648   15.1500 H           1 SU3       0.0617
     93 H40       -24.0034  -11.7193   18.0386 H           1 SU3       0.0236
     94 H41       -23.9007  -12.3571   16.3912 H           1 SU3       0.0236
     95 H42       -24.5069  -10.7208   16.6806 H           1 SU3       0.0236
     96 H43       -21.1291   -9.2991   17.8025 H           1 SU3       0.0236
     97 H44       -22.3813   -9.9538   18.8619 H           1 SU3       0.0236
     98 H45       -22.8238   -8.8705   17.5436 H           1 SU3       0.0236
     99 H46       -16.9137   -9.1283   10.5492 H           1 SU3       0.0237
    100 H47       -15.8111   -8.1320   11.5012 H           1 SU3       0.0237
    101 H48       -16.9180   -7.3702   10.3643 H           1 SU3       0.0237
    102 H49       -20.1035   -7.9324   12.2416 H           1 SU3       0.0237
    103 H50       -19.4753   -9.0290   11.0033 H           1 SU3       0.0237
    104 H51       -19.3777   -7.2800   10.7733 H           1 SU3       0.0237
    105 H52       -15.9465  -11.7553   12.0803 H           1 SU3       0.0553
    106 H53       -17.0083  -12.0534   13.4911 H           1 SU3       0.0553
@<TRIPOS>BOND
     1     1     3   2
     2     1     4   1
     3    21     1  am
     4     4     2   1
     5     2     7  am
     6     2    52   1
     7     4     5   1
     8     5     6   1
     9     6    52   1
    10     6    53   1
    11     7     8   2
    12     7     9   1
    13     9    10   1
    14     9    13   1
    15    10    11  am
    16    11    12   1
    17    11    14   2
    18    12    47   1
    19    13    20   1
    20    13    50   1
    21    13    51   1
    22    15    16   2
    23    15    17  am
    24    53    15   1
    25    17    26   1
    26    17    29   1
    27    18    19   1
    28    24    18   1
    29    22    21   1
    30    22    23   1
    31    22    24   1
    32    22    25   1
    33    23    35  am
    34    23    36   2
    35    24    25   1
    36    26    27   2
    37    27    28  ar
    38    27    30  ar
    39    28    29   2
    40    28    33  ar
    41    30    31  ar
    42    31    32  ar
    43    32    33  ar
    44    33    34   1
    45    34    43   1
    46    35    37  am
    47    37    38   1
    48    37    39   2
    49    37    40   2
    50    38    41   1
    51    38    42   1
    52    41    42   1
    53    43    44   1
    54    44    45   1
    55    45    46   1
    56    46    47   1
    57    46    48   1
    58    46    49   1
    59     4    54   1
    60     5    55   1
    61     5    56   1
    62     6    57   1
    63     9    58   1
    64    10    59   1
    65    18    60   1
    66    18    61   1
    67    19    62   1
    68    19    63   1
    69    19    64   1
    70    20    65   1
    71    20    66   1
    72    20    67   1
    73    21    68   1
    74    24    69   1
    75    25    70   1
    76    25    71   1
    77    26    72   1
    78    29    73   1
    79    30    74   1
    80    31    75   1
    81    32    76   1
    82    34    77   1
    83    34    78   1
    84    35    79   1
    85    38    80   1
    86    41    81   1
    87    41    82   1
    88    42    83   1
    89    42    84   1
    90    43    85   1
    91    43    86   1
    92    44    87   1
    93    44    88   1
    94    45    89   1
    95    45    90   1
    96    47    91   1
    97    47    92   1
    98    48    93   1
    99    48    94   1
   100    48    95   1
   101    49    96   1
   102    49    97   1
   103    49    98   1
   104    50    99   1
   105    50   100   1
   106    50   101   1
   107    51   102   1
   108    51   103   1
   109    51   104   1
   110    52   105   1
   111    52   106   1
@<TRIPOS>SUBSTRUCTURE
     1  SU3      1

