@<TRIPOS>MOLECULE
3su3_ligand_078
   106   111
SMALL
GAST_HUCK
****
This file was generated by PARSER (from files_GN.cpp)

@<TRIPOS>ATOM
      1 C         -12.3978   -5.5789   10.5726 C.2         1 SU3       0.2013
      2 N         -10.3097   -5.6814    9.3353 N.am        1 SU3      -0.2469
      3 O         -12.4934   -6.7238   11.0020 O.2         1 SU3      -0.3947
      4 CA        -11.7325   -5.3954    9.2891 C.3         1 SU3       0.1363
      5 CB        -12.3113   -6.3391    8.1985 C.3         1 SU3       0.0206
      6 CG        -11.0938   -6.6586    7.3273 C.3         1 SU3       0.1158
      7 CAF        -9.4474   -5.0823   10.1786 C.2         1 SU3       0.2070
      8 OAG        -9.8598   -4.1164   10.8076 O.2         1 SU3      -0.3942
      9 CAH        -8.0273   -5.4287   10.3823 C.3         1 SU3       0.1378
     10 NAI        -7.2430   -4.2862   10.0080 N.am        1 SU3      -0.2407
     11 CAJ        -6.2924   -4.2440    9.0516 C.2         1 SU3       0.3218
     12 OAK        -5.5133   -3.1338    9.0183 O.3         1 SU3      -0.2633
     13 CAL        -7.6419   -5.9359   11.8373 C.3         1 SU3       0.0025
     14 OAM        -6.0444   -5.2944    8.2343 O.2         1 SU3      -0.3774
     15 CAO       -11.5449   -5.3944    5.1991 C.2         1 SU3       0.4317
     16 OAP       -12.5791   -6.2019    4.8546 O.2         1 SU3      -0.3166
     17 NAQ       -11.1820   -4.3495    4.4148 N.am        1 SU3      -0.2080
     18 CAR       -15.8859   -3.4294   13.6577 C.3         1 SU3      -0.0516
     19 CAS       -15.5927   -3.5817   15.1720 C.3         1 SU3      -0.0651
     20 CAT        -7.8656   -4.8603   12.9530 C.3         1 SU3      -0.0558
     21 NAV       -12.8488   -4.5401   11.2615 N.am        1 SU3      -0.2737
     22 CAX       -13.5132   -4.6122   12.5381 C.3         1 SU3       0.1374
     23 CAY       -12.6854   -4.6940   13.7358 C.2         1 SU3       0.2444
     24 CAZ       -14.9136   -3.9203   12.5487 C.3         1 SU3      -0.0066
     25 CBA       -14.8129   -5.4503   12.4742 C.3         1 SU3      -0.0152
     26 CBB       -11.7623   -3.9912    3.2493 C.2         1 SU3       0.0383
     27 CBC       -11.1193   -2.8602    2.7595 C.ar        1 SU3      -0.0374
     28 CBD       -10.1161   -2.5245    3.6669 C.ar        1 SU3      -0.0293
     29 CBE       -10.1795   -3.4782    4.6800 C.2         1 SU3       0.0366
     30 CBF       -11.3340   -2.1026    1.5959 C.ar        1 SU3      -0.0689
     31 CBG       -10.5081   -0.9896    1.3594 C.ar        1 SU3      -0.0688
     32 CBH        -9.4889   -0.6463    2.2759 C.ar        1 SU3      -0.0606
     33 CBI        -9.2765   -1.4042    3.4567 C.ar        1 SU3      -0.0432
     34 CBJ        -8.2029   -1.0199    4.4093 C.3         1 SU3      -0.0194
     35 NBK       -11.7068   -5.5904   13.8033 N.am        1 SU3      -0.1552
     36 OBL       -12.9579   -3.9661   14.7180 O.2         1 SU3      -0.3404
     37 SBM       -10.9187   -5.9836   15.2369 S.o2        1 SU3       0.0645
     38 CBN       -11.7831   -7.1098   16.3504 C.3         1 SU3       0.1004
     39 OBO        -9.5700   -6.7234   14.8066 O.2         1 SU3      -0.1503
     40 OBP       -10.3780   -4.6856   15.9789 O.2         1 SU3      -0.1503
     41 CBQ       -12.3383   -6.5281   17.6619 C.3         1 SU3      -0.0268
     42 CBR       -13.3022   -6.9528   16.5411 C.3         1 SU3      -0.0268
     43 CBS        -6.8133   -1.5227    3.9366 C.3         1 SU3      -0.0433
     44 CBT        -5.6478   -1.1636    4.9006 C.3         1 SU3      -0.0507
     45 CBU        -5.5325   -2.0959    6.1444 C.3         1 SU3      -0.0453
     46 CBV        -4.4348   -1.7348    7.2151 C.3         1 SU3      -0.0072
     47 CBW        -4.3229   -2.9110    8.2463 C.3         1 SU3       0.0824
     48 CBX        -3.0285   -1.5580    6.5527 C.3         1 SU3      -0.0574
     49 CBY        -4.8050   -0.4230    7.9802 C.3         1 SU3      -0.0574
     50 CBZ        -8.4861   -7.2089   12.1845 C.3         1 SU3      -0.0558
     51 CCA        -6.1300   -6.3385   11.8933 C.3         1 SU3      -0.0558
     52 CD1        -9.9373   -6.6436    8.3430 C.3         1 SU3       0.0677
     53 OD2       -10.8633   -5.6364    6.3483 O.3         1 SU3      -0.2338
     54 H1        -11.8641   -4.3660    8.9444 H           1 SU3       0.0803
     55 H2        -13.1177   -5.8649    7.6360 H           1 SU3       0.0342
     56 H3        -12.6911   -7.2766    8.6205 H           1 SU3       0.0342
     57 H4        -11.1758   -7.6374    6.8443 H           1 SU3       0.0673
     58 H5         -7.7679   -6.2559    9.7230 H           1 SU3       0.0805
     59 H6         -7.3286   -3.4992   10.5644 H           1 SU3       0.1899
     60 H7        -16.0365   -2.3648   13.4912 H           1 SU3       0.0265
     61 H8        -16.8414   -3.9238   13.4660 H           1 SU3       0.0265
     62 H9        -16.5110   -3.3772   15.7391 H           1 SU3       0.0230
     63 H10       -14.8482   -2.8549   15.4915 H           1 SU3       0.0230
     64 H11       -15.2559   -4.5939   15.4049 H           1 SU3       0.0230
     65 H12        -7.4497   -5.1923   13.9083 H           1 SU3       0.0237
     66 H13        -8.9265   -4.6699   13.1077 H           1 SU3       0.0237
     67 H14        -7.3859   -3.9187   12.6835 H           1 SU3       0.0237
     68 H15       -12.7354   -3.6591   10.8838 H           1 SU3       0.1839
     69 H16       -15.1940   -3.5130   11.5722 H           1 SU3       0.0312
     70 H17       -15.0853   -6.0003   13.3771 H           1 SU3       0.0279
     71 H18       -15.1090   -5.8757   11.5125 H           1 SU3       0.0279
     72 H19       -12.5481   -4.4605    2.7893 H           1 SU3       0.0373
     73 H20        -9.5674   -3.5109    5.4965 H           1 SU3       0.0361
     74 H21       -12.0757   -2.3559    0.9376 H           1 SU3       0.0557
     75 H22       -10.6498   -0.4210    0.5175 H           1 SU3       0.0599
     76 H23        -8.9051    0.1712    2.0764 H           1 SU3       0.0557
     77 H24        -8.4178   -1.4162    5.4003 H           1 SU3       0.0426
     78 H25        -8.1821    0.0681    4.5062 H           1 SU3       0.0426
     79 H26       -11.4315   -6.0732   12.9947 H           1 SU3       0.2148
     80 H27       -11.4004   -8.1239   16.4308 H           1 SU3       0.0559
     81 H28       -12.2497   -5.4492   17.8093 H           1 SU3       0.0285
     82 H29       -12.3086   -7.1848   18.5269 H           1 SU3       0.0285
     83 H30       -13.8507   -7.8807   16.6858 H           1 SU3       0.0285
     84 H31       -13.8004   -6.1382   16.0205 H           1 SU3       0.0285
     85 H32        -6.5961   -1.0695    2.9636 H           1 SU3       0.0287
     86 H33        -6.8417   -2.6074    3.7918 H           1 SU3       0.0287
     87 H34        -5.7555   -0.1242    5.2149 H           1 SU3       0.0267
     88 H35        -4.7205   -1.2397    4.3274 H           1 SU3       0.0267
     89 H36        -5.3369   -3.1044    5.7683 H           1 SU3       0.0271
     90 H37        -6.5024   -2.1292    6.6449 H           1 SU3       0.0271
     91 H38        -4.0285   -3.8233    7.7233 H           1 SU3       0.0617
     92 H39        -3.5325   -2.6981    8.9711 H           1 SU3       0.0617
     93 H40        -3.0051   -0.6855    5.8970 H           1 SU3       0.0236
     94 H41        -2.7662   -2.4388    5.9612 H           1 SU3       0.0236
     95 H42        -2.2540   -1.4157    7.3106 H           1 SU3       0.0236
     96 H43        -5.8011   -0.4973    8.4210 H           1 SU3       0.0236
     97 H44        -4.7933    0.4402    7.3129 H           1 SU3       0.0236
     98 H45        -4.0916   -0.2303    8.7852 H           1 SU3       0.0236
     99 H46        -8.3296   -7.9984   11.4460 H           1 SU3       0.0237
    100 H47        -9.5534   -6.9749   12.2068 H           1 SU3       0.0237
    101 H48        -8.1967   -7.6147   13.1579 H           1 SU3       0.0237
    102 H49        -5.4850   -5.4660   11.7758 H           1 SU3       0.0237
    103 H50        -5.8887   -7.0402   11.0990 H           1 SU3       0.0237
    104 H51        -5.8736   -6.8071   12.8480 H           1 SU3       0.0237
    105 H52        -9.8210   -7.6224    8.8178 H           1 SU3       0.0553
    106 H53        -9.0148   -6.3692    7.8219 H           1 SU3       0.0553
@<TRIPOS>BOND
     1     1     3   2
     2     1     4   1
     3    21     1  am
     4     4     2   1
     5     2     7  am
     6     2    52   1
     7     4     5   1
     8     5     6   1
     9     6    52   1
    10     6    53   1
    11     7     8   2
    12     7     9   1
    13     9    10   1
    14     9    13   1
    15    10    11  am
    16    11    12   1
    17    11    14   2
    18    12    47   1
    19    13    20   1
    20    13    50   1
    21    13    51   1
    22    15    16   2
    23    15    17  am
    24    53    15   1
    25    17    26   1
    26    17    29   1
    27    18    19   1
    28    24    18   1
    29    22    21   1
    30    22    23   1
    31    22    24   1
    32    22    25   1
    33    23    35  am
    34    23    36   2
    35    24    25   1
    36    26    27   2
    37    27    28  ar
    38    27    30  ar
    39    28    29   2
    40    28    33  ar
    41    30    31  ar
    42    31    32  ar
    43    32    33  ar
    44    33    34   1
    45    34    43   1
    46    35    37  am
    47    37    38   1
    48    37    39   2
    49    37    40   2
    50    38    41   1
    51    38    42   1
    52    41    42   1
    53    43    44   1
    54    44    45   1
    55    45    46   1
    56    46    47   1
    57    46    48   1
    58    46    49   1
    59     4    54   1
    60     5    55   1
    61     5    56   1
    62     6    57   1
    63     9    58   1
    64    10    59   1
    65    18    60   1
    66    18    61   1
    67    19    62   1
    68    19    63   1
    69    19    64   1
    70    20    65   1
    71    20    66   1
    72    20    67   1
    73    21    68   1
    74    24    69   1
    75    25    70   1
    76    25    71   1
    77    26    72   1
    78    29    73   1
    79    30    74   1
    80    31    75   1
    81    32    76   1
    82    34    77   1
    83    34    78   1
    84    35    79   1
    85    38    80   1
    86    41    81   1
    87    41    82   1
    88    42    83   1
    89    42    84   1
    90    43    85   1
    91    43    86   1
    92    44    87   1
    93    44    88   1
    94    45    89   1
    95    45    90   1
    96    47    91   1
    97    47    92   1
    98    48    93   1
    99    48    94   1
   100    48    95   1
   101    49    96   1
   102    49    97   1
   103    49    98   1
   104    50    99   1
   105    50   100   1
   106    50   101   1
   107    51   102   1
   108    51   103   1
   109    51   104   1
   110    52   105   1
   111    52   106   1
@<TRIPOS>SUBSTRUCTURE
     1  SU3      1

