@<TRIPOS>MOLECULE
3su3_ligand_093
   106   111
SMALL
GAST_HUCK
****
This file was generated by PARSER (from files_GN.cpp)

@<TRIPOS>ATOM
      1 C         -14.4237  -18.2638   19.7609 C.2         1 SU3       0.2013
      2 N         -15.1637  -18.1195   17.4248 N.am        1 SU3      -0.2469
      3 O         -13.3257  -18.3125   20.3077 O.2         1 SU3      -0.3947
      4 CA        -14.5680  -17.4423   18.5588 C.3         1 SU3       0.1363
      5 CB        -15.4648  -16.2050   18.8170 C.3         1 SU3       0.0206
      6 CG        -16.1529  -15.9746   17.4637 C.3         1 SU3       0.1158
      7 CAF       -14.6284  -19.1989   16.8220 C.2         1 SU3       0.2070
      8 OAG       -13.4884  -19.5150   17.1404 O.2         1 SU3      -0.3942
      9 CAH       -15.2830  -20.0531   15.8128 C.3         1 SU3       0.1378
     10 NAI       -14.5306  -19.9755   14.5847 N.am        1 SU3      -0.2407
     11 CAJ       -15.0251  -19.6846   13.3594 C.2         1 SU3       0.3218
     12 OAK       -14.2205  -19.9188   12.2885 O.3         1 SU3      -0.2633
     13 CAL       -15.5319  -21.5677   16.2288 C.3         1 SU3       0.0025
     14 OAM       -16.3140  -19.3007   13.1844 O.2         1 SU3      -0.3774
     15 CAO       -15.0139  -13.9063   16.5770 C.2         1 SU3       0.4317
     16 OAP       -15.4895  -13.1241   17.5769 O.2         1 SU3      -0.3166
     17 NAQ       -14.2578  -13.3747   15.5835 N.am        1 SU3      -0.2080
     18 CAR       -17.1016  -21.5420   22.6619 C.3         1 SU3      -0.0516
     19 CAS       -17.5374  -23.0046   22.4417 C.3         1 SU3      -0.0651
     20 CAT       -16.4770  -21.6139   17.4739 C.3         1 SU3      -0.0558
     21 NAV       -15.4571  -18.9195   20.2793 N.am        1 SU3      -0.2737
     22 CAX       -15.4155  -19.7631   21.4405 C.3         1 SU3       0.1374
     23 CAY       -15.2667  -19.1159   22.7263 C.2         1 SU3       0.2444
     24 CAZ       -16.4228  -20.9462   21.3974 C.3         1 SU3      -0.0066
     25 CBA       -14.9162  -21.2087   21.2281 C.3         1 SU3      -0.0152
     26 CBB       -13.9146  -12.0742   15.4513 C.2         1 SU3       0.0383
     27 CBC       -13.1816  -11.9180   14.2809 C.ar        1 SU3      -0.0374
     28 CBD       -13.0542  -13.1772   13.6949 C.ar        1 SU3      -0.0293
     29 CBE       -13.7420  -14.0576   14.5342 C.2         1 SU3       0.0366
     30 CBF       -12.6388  -10.7715   13.6779 C.ar        1 SU3      -0.0689
     31 CBG       -11.9647  -10.9169   12.4479 C.ar        1 SU3      -0.0688
     32 CBH       -11.8190  -12.1925   11.8615 C.ar        1 SU3      -0.0606
     33 CBI       -12.3569  -13.3510   12.4758 C.ar        1 SU3      -0.0432
     34 CBJ       -12.1900  -14.6845   11.8348 C.3         1 SU3      -0.0194
     35 NBK       -14.1213  -19.2022   23.3920 N.am        1 SU3      -0.1552
     36 OBL       -16.2309  -18.5016   23.1676 O.2         1 SU3      -0.3404
     37 SBM       -13.8901  -18.6188   24.9565 S.o2        1 SU3       0.0645
     38 CBN       -14.6538  -19.6782   26.2053 C.3         1 SU3       0.1004
     39 OBO       -12.3236  -18.4711   25.2002 O.2         1 SU3      -0.1503
     40 OBP       -14.4639  -17.1396   25.0210 O.2         1 SU3      -0.1503
     41 CBQ       -13.8178  -20.8194   26.8018 C.3         1 SU3      -0.0268
     42 CBR       -14.1397  -19.5773   27.6471 C.3         1 SU3      -0.0268
     43 CBS       -13.1409  -14.8714   10.6212 C.3         1 SU3      -0.0433
     44 CBT       -13.0245  -16.2578    9.9280 C.3         1 SU3      -0.0507
     45 CBU       -13.7522  -17.4132   10.6798 C.3         1 SU3      -0.0453
     46 CBV       -13.6034  -18.8659   10.0959 C.3         1 SU3      -0.0072
     47 CBW       -14.5510  -19.8272   10.8939 C.3         1 SU3       0.0824
     48 CBX       -14.0190  -18.9187    8.5877 C.3         1 SU3      -0.0574
     49 CBY       -12.1329  -19.3815   10.2301 C.3         1 SU3      -0.0574
     50 CBZ       -16.2611  -22.3366   15.0697 C.3         1 SU3      -0.0558
     51 CCA       -14.2142  -22.3481   16.5693 C.3         1 SU3      -0.0558
     52 CD1       -16.3034  -17.4085   16.9222 C.3         1 SU3       0.0677
     53 OD2       -15.3385  -15.2232   16.5487 O.3         1 SU3      -0.2338
     54 H1        -13.5848  -17.0685   18.2451 H           1 SU3       0.0803
     55 H2        -14.8800  -15.3388   19.1366 H           1 SU3       0.0342
     56 H3        -16.2340  -16.3994   19.5734 H           1 SU3       0.0342
     57 H4        -17.1291  -15.4942   17.5724 H           1 SU3       0.0673
     58 H5        -16.2819  -19.6553   15.6269 H           1 SU3       0.0805
     59 H6        -13.6030  -20.2705   14.6216 H           1 SU3       0.1899
     60 H7        -16.4332  -21.5023   23.5315 H           1 SU3       0.0265
     61 H8        -17.9873  -20.9415   22.8862 H           1 SU3       0.0265
     62 H9        -18.0191  -23.3892   23.3451 H           1 SU3       0.0230
     63 H10       -16.6697  -23.6321   22.2137 H           1 SU3       0.0230
     64 H11       -18.2510  -23.0719   21.6126 H           1 SU3       0.0230
     65 H12       -16.6379  -22.6413   17.8103 H           1 SU3       0.0237
     66 H13       -17.4500  -21.1710   17.2435 H           1 SU3       0.0237
     67 H14       -16.0376  -21.0513   18.2960 H           1 SU3       0.0237
     68 H15       -16.3145  -18.8288   19.8257 H           1 SU3       0.1839
     69 H16       -16.9931  -21.0274   20.4680 H           1 SU3       0.0312
     70 H17       -14.4115  -21.6872   22.0700 H           1 SU3       0.0279
     71 H18       -14.5995  -21.4708   20.2170 H           1 SU3       0.0279
     72 H19       -14.1705  -11.3112   16.0844 H           1 SU3       0.0373
     73 H20       -13.8530  -15.0589   14.3638 H           1 SU3       0.0361
     74 H21       -12.7427   -9.8523   14.1134 H           1 SU3       0.0557
     75 H22       -11.5723  -10.0957   11.9889 H           1 SU3       0.0599
     76 H23       -11.3114  -12.2690   10.9782 H           1 SU3       0.0557
     77 H24       -12.3707  -15.4781   12.5603 H           1 SU3       0.0426
     78 H25       -11.1525  -14.7926   11.5084 H           1 SU3       0.0426
     79 H26       -13.3860  -19.6830   22.9761 H           1 SU3       0.2148
     80 H27       -15.7193  -19.8897   26.1116 H           1 SU3       0.0559
     81 H28       -12.7753  -20.9044   26.4897 H           1 SU3       0.0285
     82 H29       -14.3656  -21.7209   27.0826 H           1 SU3       0.0285
     83 H30       -14.8830  -19.7294   28.4310 H           1 SU3       0.0285
     84 H31       -13.2952  -18.9110   27.8331 H           1 SU3       0.0285
     85 H32       -12.9051  -14.1035    9.8782 H           1 SU3       0.0287
     86 H33       -14.1759  -14.7124   10.9382 H           1 SU3       0.0287
     87 H34       -11.9678  -16.4975    9.7949 H           1 SU3       0.0267
     88 H35       -13.4679  -16.1615    8.9340 H           1 SU3       0.0267
     89 H36       -14.8147  -17.1558   10.7098 H           1 SU3       0.0271
     90 H37       -13.4017  -17.4242   11.7131 H           1 SU3       0.0271
     91 H38       -15.5905  -19.5160   10.7573 H           1 SU3       0.0617
     92 H39       -14.4715  -20.8416   10.4925 H           1 SU3       0.0617
     93 H40       -13.3248  -18.3494    7.9666 H           1 SU3       0.0236
     94 H41       -15.0200  -18.5056    8.4476 H           1 SU3       0.0236
     95 H42       -14.0201  -19.9464    8.2173 H           1 SU3       0.0236
     96 H43       -11.7885  -19.3104   11.2634 H           1 SU3       0.0236
     97 H44       -11.4518  -18.8016    9.6056 H           1 SU3       0.0236
     98 H45       -12.0580  -20.4259    9.9186 H           1 SU3       0.0236
     99 H46       -15.6105  -22.4353   14.1960 H           1 SU3       0.0237
    100 H47       -17.1697  -21.8087   14.7639 H           1 SU3       0.0237
    101 H48       -16.5469  -23.3449   15.3875 H           1 SU3       0.0237
    102 H49       -13.7654  -21.9884   17.4979 H           1 SU3       0.0237
    103 H50       -13.4811  -22.2426   15.7659 H           1 SU3       0.0237
    104 H51       -14.4184  -23.4139   16.7025 H           1 SU3       0.0237
    105 H52       -17.2194  -17.8745   17.2964 H           1 SU3       0.0553
    106 H53       -16.3366  -17.3727   15.8284 H           1 SU3       0.0553
@<TRIPOS>BOND
     1     1     3   2
     2     1     4   1
     3    21     1  am
     4     4     2   1
     5     2     7  am
     6     2    52   1
     7     4     5   1
     8     5     6   1
     9     6    52   1
    10     6    53   1
    11     7     8   2
    12     7     9   1
    13     9    10   1
    14     9    13   1
    15    10    11  am
    16    11    12   1
    17    11    14   2
    18    12    47   1
    19    13    20   1
    20    13    50   1
    21    13    51   1
    22    15    16   2
    23    15    17  am
    24    53    15   1
    25    17    26   1
    26    17    29   1
    27    18    19   1
    28    24    18   1
    29    22    21   1
    30    22    23   1
    31    22    24   1
    32    22    25   1
    33    23    35  am
    34    23    36   2
    35    24    25   1
    36    26    27   2
    37    27    28  ar
    38    27    30  ar
    39    28    29   2
    40    28    33  ar
    41    30    31  ar
    42    31    32  ar
    43    32    33  ar
    44    33    34   1
    45    34    43   1
    46    35    37  am
    47    37    38   1
    48    37    39   2
    49    37    40   2
    50    38    41   1
    51    38    42   1
    52    41    42   1
    53    43    44   1
    54    44    45   1
    55    45    46   1
    56    46    47   1
    57    46    48   1
    58    46    49   1
    59     4    54   1
    60     5    55   1
    61     5    56   1
    62     6    57   1
    63     9    58   1
    64    10    59   1
    65    18    60   1
    66    18    61   1
    67    19    62   1
    68    19    63   1
    69    19    64   1
    70    20    65   1
    71    20    66   1
    72    20    67   1
    73    21    68   1
    74    24    69   1
    75    25    70   1
    76    25    71   1
    77    26    72   1
    78    29    73   1
    79    30    74   1
    80    31    75   1
    81    32    76   1
    82    34    77   1
    83    34    78   1
    84    35    79   1
    85    38    80   1
    86    41    81   1
    87    41    82   1
    88    42    83   1
    89    42    84   1
    90    43    85   1
    91    43    86   1
    92    44    87   1
    93    44    88   1
    94    45    89   1
    95    45    90   1
    96    47    91   1
    97    47    92   1
    98    48    93   1
    99    48    94   1
   100    48    95   1
   101    49    96   1
   102    49    97   1
   103    49    98   1
   104    50    99   1
   105    50   100   1
   106    50   101   1
   107    51   102   1
   108    51   103   1
   109    51   104   1
   110    52   105   1
   111    52   106   1
@<TRIPOS>SUBSTRUCTURE
     1  SU3      1

