@<TRIPOS>MOLECULE
3su3_ligand_067
   106   111
SMALL
GAST_HUCK
****
This file was generated by PARSER (from files_GN.cpp)

@<TRIPOS>ATOM
      1 C         -11.9327   -7.9866   10.2994 C.2         1 SU3       0.2013
      2 N         -14.3035   -8.0671    9.8688 N.am        1 SU3      -0.2469
      3 O         -11.5696   -7.2622    9.3801 O.2         1 SU3      -0.3947
      4 CA        -13.1038   -8.8462   10.0945 C.3         1 SU3       0.1363
      5 CB        -12.9413   -9.7408    8.8352 C.3         1 SU3       0.0206
      6 CG        -14.3224   -9.7011    8.1615 C.3         1 SU3       0.1158
      7 CAF       -14.8141   -7.2020   10.7676 C.2         1 SU3       0.2070
      8 OAG       -14.3670   -7.2305   11.9111 O.2         1 SU3      -0.3942
      9 CAH       -15.7969   -6.1444   10.4742 C.3         1 SU3       0.1378
     10 NAI       -16.9647   -6.4346   11.2655 N.am        1 SU3      -0.2407
     11 CAJ       -18.2438   -6.5315   10.8412 C.2         1 SU3       0.3218
     12 OAK       -19.1952   -6.6416   11.8039 O.3         1 SU3      -0.2633
     13 CAL       -15.2869   -4.6530   10.7081 C.3         1 SU3       0.0025
     14 OAM       -18.5801   -6.4304    9.5316 O.2         1 SU3      -0.3774
     15 CAO       -15.2130  -12.0486    8.4291 C.2         1 SU3       0.4317
     16 OAP       -14.2905  -12.5856    7.5968 O.2         1 SU3      -0.3166
     17 NAQ       -16.1665  -12.8180    9.0095 N.am        1 SU3      -0.2080
     18 CAR        -7.7272   -7.6319   12.8913 C.3         1 SU3      -0.0516
     19 CAS        -6.3328   -7.8550   12.2667 C.3         1 SU3      -0.0651
     20 CAT       -13.7389   -4.5215   10.4943 C.3         1 SU3      -0.0558
     21 NAV       -11.3001   -7.9725   11.4662 N.am        1 SU3      -0.2737
     22 CAX       -10.1992   -7.1196   11.8108 C.3         1 SU3       0.1374
     23 CAY       -10.4467   -6.1881   12.8988 C.2         1 SU3       0.2444
     24 CAZ        -8.8665   -7.9214   11.8730 C.3         1 SU3      -0.0066
     25 CBA        -9.0777   -6.8690   10.7776 C.3         1 SU3      -0.0152
     26 CBB       -16.3383  -14.1478    8.8272 C.2         1 SU3       0.0383
     27 CBC       -17.4325  -14.5618    9.5782 C.ar        1 SU3      -0.0374
     28 CBD       -17.9289  -13.4437   10.2478 C.ar        1 SU3      -0.0293
     29 CBE       -17.1166  -12.3800    9.8633 C.2         1 SU3       0.0366
     30 CBF       -18.0322  -15.8241    9.7170 C.ar        1 SU3      -0.0689
     31 CBG       -19.1564  -15.9437   10.5566 C.ar        1 SU3      -0.0688
     32 CBH       -19.6616  -14.8143   11.2395 C.ar        1 SU3      -0.0606
     33 CBI       -19.0557  -13.5393   11.1021 C.ar        1 SU3      -0.0432
     34 CBJ       -19.6055  -12.3614   11.8307 C.3         1 SU3      -0.0194
     35 NBK       -10.9165   -6.6553   14.0466 N.am        1 SU3      -0.1552
     36 OBL       -10.2431   -4.9928   12.7092 O.2         1 SU3      -0.3404
     37 SBM       -11.1830   -5.7255   15.4281 S.o2        1 SU3       0.0645
     38 CBN       -12.6273   -4.6546   15.6539 C.3         1 SU3       0.1004
     39 OBO       -11.3315   -6.8007   16.5882 O.2         1 SU3      -0.1503
     40 OBP        -9.8402   -4.9847   15.8480 O.2         1 SU3      -0.1503
     41 CBQ       -13.2075   -3.9071   14.4468 C.3         1 SU3      -0.0268
     42 CBR       -13.9536   -5.1169   15.0330 C.3         1 SU3      -0.0268
     43 CBS       -20.8872  -11.8065   11.1508 C.3         1 SU3      -0.0433
     44 CBT       -21.4981  -10.5641   11.8625 C.3         1 SU3      -0.0507
     45 CBU       -20.7870   -9.2143   11.5401 C.3         1 SU3      -0.0453
     46 CBV       -21.2914   -7.9311   12.3025 C.3         1 SU3      -0.0072
     47 CBW       -20.6265   -6.6595   11.6681 C.3         1 SU3       0.0824
     48 CBX       -22.8442   -7.7737   12.1829 C.3         1 SU3      -0.0574
     49 CBY       -20.9158   -7.9976   13.8196 C.3         1 SU3      -0.0574
     50 CBZ       -15.9882   -3.7099    9.6714 C.3         1 SU3      -0.0558
     51 CCA       -15.6302   -4.1158   12.1431 C.3         1 SU3      -0.0558
     52 CD1       -14.8637   -8.3221    8.5735 C.3         1 SU3       0.0677
     53 OD2       -15.2083  -10.7083    8.6701 O.3         1 SU3      -0.2338
     54 H1        -13.2782   -9.5000   10.9618 H           1 SU3       0.0803
     55 H2        -12.6465  -10.7612    9.1012 H           1 SU3       0.0342
     56 H3        -12.1980   -9.3432    8.1326 H           1 SU3       0.0342
     57 H4        -14.2519   -9.7808    7.0709 H           1 SU3       0.0673
     58 H5        -16.0661   -6.2128    9.4159 H           1 SU3       0.0805
     59 H6        -16.8331   -6.4748   12.2283 H           1 SU3       0.1899
     60 H7         -7.7816   -6.6027   13.2682 H           1 SU3       0.0265
     61 H8         -7.8462   -8.3109   13.7411 H           1 SU3       0.0265
     62 H9         -5.5627   -7.6987   13.0262 H           1 SU3       0.0230
     63 H10        -6.1604   -7.1501   11.4489 H           1 SU3       0.0230
     64 H11        -6.2434   -8.8725   11.8800 H           1 SU3       0.0230
     65 H12       -13.4254   -3.4737   10.5178 H           1 SU3       0.0237
     66 H13       -13.4456   -4.9523    9.5306 H           1 SU3       0.0237
     67 H14       -13.1931   -5.0424   11.2856 H           1 SU3       0.0237
     68 H15       -11.6268   -8.5631   12.1671 H           1 SU3       0.1839
     69 H16        -8.8972   -8.9370   11.4681 H           1 SU3       0.0312
     70 H17        -8.5103   -5.9399   10.8819 H           1 SU3       0.0279
     71 H18        -9.2563   -7.2599    9.7746 H           1 SU3       0.0279
     72 H19       -15.7759  -14.7577    8.2290 H           1 SU3       0.0373
     73 H20       -17.2309  -11.4137   10.1797 H           1 SU3       0.0361
     74 H21       -17.6622  -16.6351    9.2166 H           1 SU3       0.0557
     75 H22       -19.6061  -16.8522   10.6718 H           1 SU3       0.0599
     76 H23       -20.4782  -14.9323   11.8442 H           1 SU3       0.0557
     77 H24       -18.8605  -11.5687   11.8912 H           1 SU3       0.0426
     78 H25       -19.8337  -12.6535   12.8587 H           1 SU3       0.0426
     79 H26       -11.0411   -7.6180   14.1324 H           1 SU3       0.2148
     80 H27       -12.7325   -4.1334   16.6105 H           1 SU3       0.0559
     81 H28       -12.7318   -4.0742   13.4779 H           1 SU3       0.0285
     82 H29       -13.6557   -2.9363   14.6630 H           1 SU3       0.0285
     83 H30       -14.8559   -4.8749   15.6031 H           1 SU3       0.0285
     84 H31       -13.9200   -6.0304   14.4406 H           1 SU3       0.0285
     85 H32       -21.6430  -12.5962   11.1489 H           1 SU3       0.0287
     86 H33       -20.6721  -11.5548   10.1099 H           1 SU3       0.0287
     87 H34       -21.5062  -10.7417   12.9391 H           1 SU3       0.0267
     88 H35       -22.5392  -10.4891   11.5347 H           1 SU3       0.0267
     89 H36       -20.8945   -9.0461   10.4651 H           1 SU3       0.0271
     90 H37       -19.7191   -9.3311   11.7357 H           1 SU3       0.0271
     91 H38       -20.9101   -6.5777   10.6160 H           1 SU3       0.0617
     92 H39       -20.9931   -5.7608   12.1698 H           1 SU3       0.0617
     93 H40       -23.3646   -8.5794   12.7048 H           1 SU3       0.0236
     94 H41       -23.1554   -7.7887   11.1358 H           1 SU3       0.0236
     95 H42       -23.1795   -6.8324   12.6250 H           1 SU3       0.0236
     96 H43       -19.8416   -8.1447   13.9485 H           1 SU3       0.0236
     97 H44       -21.4316   -8.8188   14.3198 H           1 SU3       0.0236
     98 H45       -21.1961   -7.0731   14.3296 H           1 SU3       0.0236
     99 H46       -17.0769   -3.7894    9.7471 H           1 SU3       0.0237
    100 H47       -15.7029   -3.9747    8.6493 H           1 SU3       0.0237
    101 H48       -15.7093   -2.6637    9.8394 H           1 SU3       0.0237
    102 H49       -15.1969   -4.7567   12.9164 H           1 SU3       0.0237
    103 H50       -16.7123   -4.0888   12.2973 H           1 SU3       0.0237
    104 H51       -15.2438   -3.0990   12.2776 H           1 SU3       0.0237
    105 H52       -14.5300   -7.5516    7.8735 H           1 SU3       0.0553
    106 H53       -15.9565   -8.3489    8.5881 H           1 SU3       0.0553
@<TRIPOS>BOND
     1     1     3   2
     2     1     4   1
     3    21     1  am
     4     4     2   1
     5     2     7  am
     6     2    52   1
     7     4     5   1
     8     5     6   1
     9     6    52   1
    10     6    53   1
    11     7     8   2
    12     7     9   1
    13     9    10   1
    14     9    13   1
    15    10    11  am
    16    11    12   1
    17    11    14   2
    18    12    47   1
    19    13    20   1
    20    13    50   1
    21    13    51   1
    22    15    16   2
    23    15    17  am
    24    53    15   1
    25    17    26   1
    26    17    29   1
    27    18    19   1
    28    24    18   1
    29    22    21   1
    30    22    23   1
    31    22    24   1
    32    22    25   1
    33    23    35  am
    34    23    36   2
    35    24    25   1
    36    26    27   2
    37    27    28  ar
    38    27    30  ar
    39    28    29   2
    40    28    33  ar
    41    30    31  ar
    42    31    32  ar
    43    32    33  ar
    44    33    34   1
    45    34    43   1
    46    35    37  am
    47    37    38   1
    48    37    39   2
    49    37    40   2
    50    38    41   1
    51    38    42   1
    52    41    42   1
    53    43    44   1
    54    44    45   1
    55    45    46   1
    56    46    47   1
    57    46    48   1
    58    46    49   1
    59     4    54   1
    60     5    55   1
    61     5    56   1
    62     6    57   1
    63     9    58   1
    64    10    59   1
    65    18    60   1
    66    18    61   1
    67    19    62   1
    68    19    63   1
    69    19    64   1
    70    20    65   1
    71    20    66   1
    72    20    67   1
    73    21    68   1
    74    24    69   1
    75    25    70   1
    76    25    71   1
    77    26    72   1
    78    29    73   1
    79    30    74   1
    80    31    75   1
    81    32    76   1
    82    34    77   1
    83    34    78   1
    84    35    79   1
    85    38    80   1
    86    41    81   1
    87    41    82   1
    88    42    83   1
    89    42    84   1
    90    43    85   1
    91    43    86   1
    92    44    87   1
    93    44    88   1
    94    45    89   1
    95    45    90   1
    96    47    91   1
    97    47    92   1
    98    48    93   1
    99    48    94   1
   100    48    95   1
   101    49    96   1
   102    49    97   1
   103    49    98   1
   104    50    99   1
   105    50   100   1
   106    50   101   1
   107    51   102   1
   108    51   103   1
   109    51   104   1
   110    52   105   1
   111    52   106   1
@<TRIPOS>SUBSTRUCTURE
     1  SU3      1

