@<TRIPOS>MOLECULE
3su3_ligand_049
   106   111
SMALL
GAST_HUCK
****
This file was generated by PARSER (from files_GN.cpp)

@<TRIPOS>ATOM
      1 C          -9.0842  -10.1233    9.1896 C.2         1 SU3       0.2013
      2 N          -9.7772   -7.9433   10.1887 N.am        1 SU3      -0.2469
      3 O          -8.1244  -10.1512    9.9475 O.2         1 SU3      -0.3947
      4 CA        -10.1050   -9.0849    9.3449 C.3         1 SU3       0.1363
      5 CB        -10.4248   -8.4652    7.9558 C.3         1 SU3       0.0206
      6 CG        -10.7920   -7.0118    8.2537 C.3         1 SU3       0.1158
      7 CAF        -9.4452   -8.0256   11.4943 C.2         1 SU3       0.2070
      8 OAG        -9.5463   -9.1155   12.0407 O.2         1 SU3      -0.3942
      9 CAH        -8.9573   -6.9235   12.3481 C.3         1 SU3       0.1378
     10 NAI        -9.8820   -6.7765   13.4398 N.am        1 SU3      -0.2407
     11 CAJ       -10.4987   -5.6440   13.8363 C.2         1 SU3       0.3218
     12 OAK       -11.2108   -5.7021   14.9911 O.3         1 SU3      -0.2633
     13 CAL        -7.4618   -7.0321   12.8813 C.3         1 SU3       0.0025
     14 OAM       -10.3656   -4.4828   13.1533 O.2         1 SU3      -0.3774
     15 CAO       -13.2765   -6.9277    7.8268 C.2         1 SU3       0.4317
     16 OAP       -13.1381   -7.0573    6.4841 O.2         1 SU3      -0.3166
     17 NAQ       -14.5037   -6.8504    8.3963 N.am        1 SU3      -0.2080
     18 CAR        -6.5532  -13.7715    9.2063 C.3         1 SU3      -0.0516
     19 CAS        -6.6531  -14.9790   10.1636 C.3         1 SU3      -0.0651
     20 CAT        -6.9845   -5.6176   13.3619 C.3         1 SU3      -0.0558
     21 NAV        -9.1436  -10.9951    8.1886 N.am        1 SU3      -0.2737
     22 CAX        -8.1810  -12.0238    7.9246 C.3         1 SU3       0.1374
     23 CAY        -7.1645  -11.7209    6.9207 C.2         1 SU3       0.2444
     24 CAZ        -7.9128  -13.0404    9.0652 C.3         1 SU3      -0.0066
     25 CBA        -8.8321  -13.4307    7.9017 C.3         1 SU3      -0.0152
     26 CBB       -15.6936   -6.8726    7.7544 C.2         1 SU3       0.0383
     27 CBC       -16.7133   -6.8026    8.6975 C.ar        1 SU3      -0.0374
     28 CBD       -16.1141   -6.7392    9.9544 C.ar        1 SU3      -0.0293
     29 CBE       -14.7424   -6.7577    9.7264 C.2         1 SU3       0.0366
     30 CBF       -18.1094   -6.7963    8.5526 C.ar        1 SU3      -0.0689
     31 CBG       -18.9041   -6.7228    9.7142 C.ar        1 SU3      -0.0688
     32 CBH       -18.3009   -6.6621   10.9900 C.ar        1 SU3      -0.0606
     33 CBI       -16.8911   -6.6748   11.1387 C.ar        1 SU3      -0.0432
     34 CBJ       -16.2778   -6.6321   12.4945 C.3         1 SU3      -0.0194
     35 NBK        -6.8419  -10.4566    6.6943 N.am        1 SU3      -0.1552
     36 OBL        -6.6602  -12.6166    6.2543 O.2         1 SU3      -0.3404
     37 SBM        -5.7574   -9.9196    5.5170 S.o2        1 SU3       0.0645
     38 CBN        -5.4962   -8.1306    5.6144 C.3         1 SU3       0.1004
     39 OBO        -4.3462  -10.6141    5.7462 O.2         1 SU3      -0.1503
     40 OBP        -6.2869  -10.2823    4.0612 O.2         1 SU3      -0.1503
     41 CBQ        -6.1947   -7.1997    4.6102 C.3         1 SU3      -0.0268
     42 CBR        -6.6898   -7.2724    6.0587 C.3         1 SU3      -0.0268
     43 CBS       -16.3465   -5.2145   13.1232 C.3         1 SU3      -0.0433
     44 CBT       -15.6925   -5.1125   14.5303 C.3         1 SU3      -0.0507
     45 CBU       -14.1349   -5.0334   14.5197 C.3         1 SU3      -0.0453
     46 CBV       -13.4084   -4.9290   15.9153 C.3         1 SU3      -0.0072
     47 CBW       -11.8854   -4.6395   15.6825 C.3         1 SU3       0.0824
     48 CBX       -13.9909   -3.7443   16.7534 C.3         1 SU3      -0.0574
     49 CBY       -13.5479   -6.2558   16.7314 C.3         1 SU3      -0.0574
     50 CBZ        -7.2921   -8.0311   14.0742 C.3         1 SU3      -0.0558
     51 CCA        -6.4832   -7.4748   11.7459 C.3         1 SU3      -0.0558
     52 CD1        -9.9146   -6.7041    9.4753 C.3         1 SU3       0.0677
     53 OD2       -12.1719   -6.8880    8.6201 O.3         1 SU3      -0.2338
     54 H1        -11.0120   -9.5503    9.7431 H           1 SU3       0.0803
     55 H2        -11.2357   -9.0018    7.4538 H           1 SU3       0.0342
     56 H3         -9.5469   -8.4750    7.3004 H           1 SU3       0.0342
     57 H4        -10.5527   -6.3445    7.4200 H           1 SU3       0.0673
     58 H5         -8.9761   -6.0113   11.7565 H           1 SU3       0.0805
     59 H6        -10.0100   -7.5567   14.0051 H           1 SU3       0.1899
     60 H7         -6.1853  -14.1225    8.2402 H           1 SU3       0.0265
     61 H8         -5.8242  -13.0623    9.6044 H           1 SU3       0.0265
     62 H9         -5.6724  -15.4450   10.2809 H           1 SU3       0.0230
     63 H10        -7.3451  -15.7224    9.7595 H           1 SU3       0.0230
     64 H11        -7.0064  -14.6643   11.1454 H           1 SU3       0.0230
     65 H12        -5.9443   -5.6486   13.6896 H           1 SU3       0.0237
     66 H13        -7.5915   -5.2580   14.1951 H           1 SU3       0.0237
     67 H14        -7.0506   -4.8866   12.5521 H           1 SU3       0.0237
     68 H15        -9.8850  -10.9172    7.5680 H           1 SU3       0.1839
     69 H16        -8.4532  -12.8410    9.9942 H           1 SU3       0.0312
     70 H17        -8.4265  -14.1782    7.2166 H           1 SU3       0.0279
     71 H18        -9.8909  -13.4998    8.1612 H           1 SU3       0.0279
     72 H19       -15.8356   -6.9357    6.7438 H           1 SU3       0.0373
     73 H20       -14.0249   -6.7167   10.4549 H           1 SU3       0.0361
     74 H21       -18.5412   -6.8460    7.6276 H           1 SU3       0.0557
     75 H22       -19.9234   -6.7180    9.6324 H           1 SU3       0.0599
     76 H23       -18.9032   -6.6173   11.8164 H           1 SU3       0.0557
     77 H24       -15.2374   -6.9547   12.4531 H           1 SU3       0.0426
     78 H25       -16.7978   -7.3451   13.1408 H           1 SU3       0.0426
     79 H26        -7.2814   -9.7765    7.2271 H           1 SU3       0.2148
     80 H27        -4.5383   -7.7782    5.9956 H           1 SU3       0.0559
     81 H28        -6.8742   -7.6426    3.8808 H           1 SU3       0.0285
     82 H29        -5.6716   -6.2763    4.3558 H           1 SU3       0.0285
     83 H30        -6.4595   -6.3943    6.6658 H           1 SU3       0.0285
     84 H31        -7.6469   -7.7762    6.1921 H           1 SU3       0.0285
     85 H32       -17.3985   -4.9317   13.2203 H           1 SU3       0.0287
     86 H33       -15.8752   -4.4917   12.4516 H           1 SU3       0.0287
     87 H34       -16.0195   -5.9587   15.1364 H           1 SU3       0.0267
     88 H35       -16.0827   -4.2047   14.9949 H           1 SU3       0.0267
     89 H36       -13.8625   -4.1579   13.9213 H           1 SU3       0.0271
     90 H37       -13.7463   -5.9079   13.9926 H           1 SU3       0.0271
     91 H38       -11.7699   -3.6924   15.1506 H           1 SU3       0.0617
     92 H39       -11.3767   -4.5269   16.6443 H           1 SU3       0.0617
     93 H40       -14.9970   -3.9673   17.1125 H           1 SU3       0.0236
     94 H41       -14.0364   -2.8379   16.1474 H           1 SU3       0.0236
     95 H42       -13.3703   -3.5355   17.6250 H           1 SU3       0.0236
     96 H43       -13.1914   -7.1107   16.1525 H           1 SU3       0.0236
     97 H44       -14.5855   -6.4427   17.0041 H           1 SU3       0.0236
     98 H45       -12.9675   -6.2059   17.6557 H           1 SU3       0.0236
     99 H46        -7.5766   -9.0416   13.7823 H           1 SU3       0.0237
    100 H47        -7.9038   -7.7338   14.9290 H           1 SU3       0.0237
    101 H48        -6.2516   -8.0652   14.4093 H           1 SU3       0.0237
    102 H49        -6.5947   -6.8281   10.8735 H           1 SU3       0.0237
    103 H50        -6.6838   -8.5050   11.4515 H           1 SU3       0.0237
    104 H51        -5.4415   -7.4277   12.0727 H           1 SU3       0.0237
    105 H52        -8.9244   -6.3498    9.1688 H           1 SU3       0.0553
    106 H53       -10.4122   -5.9248   10.0613 H           1 SU3       0.0553
@<TRIPOS>BOND
     1     1     3   2
     2     1     4   1
     3    21     1  am
     4     4     2   1
     5     2     7  am
     6     2    52   1
     7     4     5   1
     8     5     6   1
     9     6    52   1
    10     6    53   1
    11     7     8   2
    12     7     9   1
    13     9    10   1
    14     9    13   1
    15    10    11  am
    16    11    12   1
    17    11    14   2
    18    12    47   1
    19    13    20   1
    20    13    50   1
    21    13    51   1
    22    15    16   2
    23    15    17  am
    24    53    15   1
    25    17    26   1
    26    17    29   1
    27    18    19   1
    28    24    18   1
    29    22    21   1
    30    22    23   1
    31    22    24   1
    32    22    25   1
    33    23    35  am
    34    23    36   2
    35    24    25   1
    36    26    27   2
    37    27    28  ar
    38    27    30  ar
    39    28    29   2
    40    28    33  ar
    41    30    31  ar
    42    31    32  ar
    43    32    33  ar
    44    33    34   1
    45    34    43   1
    46    35    37  am
    47    37    38   1
    48    37    39   2
    49    37    40   2
    50    38    41   1
    51    38    42   1
    52    41    42   1
    53    43    44   1
    54    44    45   1
    55    45    46   1
    56    46    47   1
    57    46    48   1
    58    46    49   1
    59     4    54   1
    60     5    55   1
    61     5    56   1
    62     6    57   1
    63     9    58   1
    64    10    59   1
    65    18    60   1
    66    18    61   1
    67    19    62   1
    68    19    63   1
    69    19    64   1
    70    20    65   1
    71    20    66   1
    72    20    67   1
    73    21    68   1
    74    24    69   1
    75    25    70   1
    76    25    71   1
    77    26    72   1
    78    29    73   1
    79    30    74   1
    80    31    75   1
    81    32    76   1
    82    34    77   1
    83    34    78   1
    84    35    79   1
    85    38    80   1
    86    41    81   1
    87    41    82   1
    88    42    83   1
    89    42    84   1
    90    43    85   1
    91    43    86   1
    92    44    87   1
    93    44    88   1
    94    45    89   1
    95    45    90   1
    96    47    91   1
    97    47    92   1
    98    48    93   1
    99    48    94   1
   100    48    95   1
   101    49    96   1
   102    49    97   1
   103    49    98   1
   104    50    99   1
   105    50   100   1
   106    50   101   1
   107    51   102   1
   108    51   103   1
   109    51   104   1
   110    52   105   1
   111    52   106   1
@<TRIPOS>SUBSTRUCTURE
     1  SU3      1

