@<TRIPOS>MOLECULE
3su3_ligand_001
   106   111
SMALL
GAST_HUCK
****
This file was generated by PARSER (from files_GN.cpp)

@<TRIPOS>ATOM
      1 C         -13.0879   -8.1903   13.3779 C.2         1 SU3       0.2013
      2 N         -14.9862   -9.7747   13.6095 N.am        1 SU3      -0.2469
      3 O         -13.8712   -7.3415   12.9668 O.2         1 SU3      -0.3947
      4 CA        -13.5598   -9.5285   13.7396 C.3         1 SU3       0.1363
      5 CB        -12.8869  -10.5959   12.8367 C.3         1 SU3       0.0206
      6 CG        -13.9443  -11.6982   12.7136 C.3         1 SU3       0.1158
      7 CAF       -15.9381   -9.0811   14.2654 C.2         1 SU3       0.2070
      8 OAG       -15.5805   -8.3379   15.1743 O.2         1 SU3      -0.3942
      9 CAH       -17.3902   -9.1265   13.9911 C.3         1 SU3       0.1378
     10 NAI       -18.0687   -9.5095   15.2040 N.am        1 SU3      -0.2407
     11 CAJ       -18.8447  -10.6065   15.3699 C.2         1 SU3       0.3218
     12 OAK       -19.5442  -10.7182   16.5308 O.3         1 SU3      -0.2633
     13 CAL       -18.0088   -7.8097   13.3514 C.3         1 SU3       0.0025
     14 OAM       -19.0219  -11.5110   14.3771 O.2         1 SU3      -0.3774
     15 CAO       -13.0246  -13.5728   14.1379 C.2         1 SU3       0.4317
     16 OAP       -12.0025  -13.8274   13.2851 O.2         1 SU3      -0.3166
     17 NAQ       -13.1881  -14.2996   15.2709 N.am        1 SU3      -0.2080
     18 CAR        -8.6544   -5.7026   12.7006 C.3         1 SU3      -0.0516
     19 CAS        -7.9959   -5.7098   14.1007 C.3         1 SU3      -0.0651
     20 CAT       -17.7084   -6.5174   14.1765 C.3         1 SU3      -0.0558
     21 NAV       -11.7959   -7.9102   13.4952 N.am        1 SU3      -0.2737
     22 CAX       -11.1979   -6.6330   13.2503 C.3         1 SU3       0.1374
     23 CAY       -11.4186   -5.5963   14.2518 C.2         1 SU3       0.2444
     24 CAZ        -9.8144   -6.7271   12.5508 C.3         1 SU3      -0.0066
     25 CBA       -11.0525   -6.2633   11.7565 C.3         1 SU3      -0.0152
     26 CBB       -12.4209  -15.3381   15.6722 C.2         1 SU3       0.0383
     27 CBC       -12.9171  -15.8216   16.8782 C.ar        1 SU3      -0.0374
     28 CBD       -14.0168  -15.0378   17.2220 C.ar        1 SU3      -0.0293
     29 CBE       -14.1603  -14.1092   16.1941 C.2         1 SU3       0.0366
     30 CBF       -12.4928  -16.8851   17.6943 C.ar        1 SU3      -0.0689
     31 CBG       -13.1919  -17.1308   18.8915 C.ar        1 SU3      -0.0688
     32 CBH       -14.3076  -16.3429   19.2411 C.ar        1 SU3      -0.0606
     33 CBI       -14.7470  -15.2793   18.4131 C.ar        1 SU3      -0.0432
     34 CBJ       -15.9453  -14.4817   18.7918 C.3         1 SU3      -0.0194
     35 NBK       -11.8941   -5.9344   15.4405 N.am        1 SU3      -0.1552
     36 OBL       -11.1604   -4.4287   13.9933 O.2         1 SU3      -0.3404
     37 SBM       -12.2642   -4.8697   16.6910 S.o2        1 SU3       0.0645
     38 CBN       -13.8541   -4.0161   16.5464 C.3         1 SU3       0.1004
     39 OBO       -12.3412   -5.8074   17.9752 O.2         1 SU3      -0.1503
     40 OBP       -11.0371   -3.8994   16.9727 O.2         1 SU3      -0.1503
     41 CBQ       -14.0925   -3.1369   15.3084 C.3         1 SU3      -0.0268
     42 CBR       -14.8109   -4.4823   15.4387 C.3         1 SU3      -0.0268
     43 CBS       -17.2592  -15.2670   18.5314 C.3         1 SU3      -0.0433
     44 CBT       -18.5542  -14.4796   18.8748 C.3         1 SU3      -0.0507
     45 CBU       -18.9658  -13.4204   17.8079 C.3         1 SU3      -0.0453
     46 CBV       -20.2487  -12.5571   18.1055 C.3         1 SU3      -0.0072
     47 CBW       -20.5702  -11.6728   16.8516 C.3         1 SU3       0.0824
     48 CBX       -21.4948  -13.4682   18.3626 C.3         1 SU3      -0.0574
     49 CBY       -20.0258  -11.6239   19.3410 C.3         1 SU3      -0.0574
     50 CBZ       -17.4418   -7.6016   11.9064 C.3         1 SU3      -0.0558
     51 CCA       -19.5657   -7.9427   13.2342 C.3         1 SU3      -0.0558
     52 CD1       -15.2546  -10.8951   12.7511 C.3         1 SU3       0.0677
     53 OD2       -13.9175  -12.5905   13.8387 O.3         1 SU3      -0.2338
     54 H1        -13.2744   -9.7191   14.7816 H           1 SU3       0.0803
     55 H2        -11.9594  -10.9719   13.2728 H           1 SU3       0.0342
     56 H3        -12.6741  -10.2050   11.8363 H           1 SU3       0.0342
     57 H4        -13.8510  -12.2615   11.7788 H           1 SU3       0.0673
     58 H5        -17.5771   -9.8966   13.2439 H           1 SU3       0.0805
     59 H6        -18.0554   -8.8726   15.9362 H           1 SU3       0.1899
     60 H7         -7.8906   -5.9658   11.9674 H           1 SU3       0.0265
     61 H8         -8.9805   -4.6879   12.4699 H           1 SU3       0.0265
     62 H9         -7.1338   -5.0373   14.1002 H           1 SU3       0.0230
     63 H10        -7.6448   -6.7137   14.3501 H           1 SU3       0.0230
     64 H11        -8.6948   -5.3740   14.8698 H           1 SU3       0.0230
     65 H12       -18.2691   -5.6606   13.7944 H           1 SU3       0.0237
     66 H13       -16.6509   -6.2706   14.1119 H           1 SU3       0.0237
     67 H14       -17.9719   -6.6543   15.2256 H           1 SU3       0.0237
     68 H15       -11.2118   -8.6108   13.8304 H           1 SU3       0.1839
     69 H16        -9.5121   -7.7426   12.2843 H           1 SU3       0.0312
     70 H17       -11.1314   -5.2015   11.5133 H           1 SU3       0.0279
     71 H18       -11.4538   -6.9867   11.0407 H           1 SU3       0.0279
     72 H19       -11.6116  -15.7203   15.1772 H           1 SU3       0.0373
     73 H20       -14.8898  -13.3942   16.1466 H           1 SU3       0.0361
     74 H21       -11.6910  -17.4613   17.4293 H           1 SU3       0.0557
     75 H22       -12.8888  -17.8875   19.5093 H           1 SU3       0.0599
     76 H23       -14.8037  -16.5528   20.1123 H           1 SU3       0.0557
     77 H24       -15.9689  -13.5431   18.2393 H           1 SU3       0.0426
     78 H25       -15.8813  -14.2201   19.8512 H           1 SU3       0.0426
     79 H26       -12.0756   -6.8745   15.6031 H           1 SU3       0.2148
     80 H27       -14.3430   -3.6634   17.4574 H           1 SU3       0.0559
     81 H28       -13.3255   -3.1149   14.5372 H           1 SU3       0.0285
     82 H29       -14.7338   -2.2632   15.4426 H           1 SU3       0.0285
     83 H30       -15.8760   -4.4044   15.6499 H           1 SU3       0.0285
     84 H31       -14.4616   -5.2461   14.7452 H           1 SU3       0.0285
     85 H32       -17.2458  -16.1724   19.1463 H           1 SU3       0.0287
     86 H33       -17.2970  -15.5843   17.4845 H           1 SU3       0.0287
     87 H34       -18.4297  -14.0076   19.8507 H           1 SU3       0.0267
     88 H35       -19.3575  -15.2135   18.9627 H           1 SU3       0.0267
     89 H36       -19.1163  -13.9534   16.8642 H           1 SU3       0.0271
     90 H37       -18.1240  -12.7410   17.6558 H           1 SU3       0.0271
     91 H38       -20.7815  -12.3174   15.9935 H           1 SU3       0.0617
     92 H39       -21.4767  -11.0898   17.0339 H           1 SU3       0.0617
     93 H40       -21.3687  -14.0693   19.2620 H           1 SU3       0.0236
     94 H41       -21.6574  -14.1466   17.5217 H           1 SU3       0.0236
     95 H42       -22.3975  -12.8667   18.4943 H           1 SU3       0.0236
     96 H43       -19.1438  -10.9957   19.1996 H           1 SU3       0.0236
     97 H44       -19.8841  -12.2011   20.2551 H           1 SU3       0.0236
     98 H45       -20.8875  -10.9697   19.4936 H           1 SU3       0.0236
     99 H46       -17.6868   -8.4499   11.2641 H           1 SU3       0.0237
    100 H47       -16.3571   -7.4968   11.9248 H           1 SU3       0.0237
    101 H48       -17.8542   -6.7001   11.4472 H           1 SU3       0.0237
    102 H49       -20.0296   -7.9891   14.2227 H           1 SU3       0.0237
    103 H50       -19.8370   -8.8476   12.6863 H           1 SU3       0.0237
    104 H51       -19.9967   -7.0877   12.7078 H           1 SU3       0.0237
    105 H52       -15.5222  -10.5370   11.7534 H           1 SU3       0.0553
    106 H53       -16.0481  -11.5473   13.1285 H           1 SU3       0.0553
@<TRIPOS>BOND
     1     1     3   2
     2     1     4   1
     3    21     1  am
     4     4     2   1
     5     2     7  am
     6     2    52   1
     7     4     5   1
     8     5     6   1
     9     6    52   1
    10     6    53   1
    11     7     8   2
    12     7     9   1
    13     9    10   1
    14     9    13   1
    15    10    11  am
    16    11    12   1
    17    11    14   2
    18    12    47   1
    19    13    20   1
    20    13    50   1
    21    13    51   1
    22    15    16   2
    23    15    17  am
    24    53    15   1
    25    17    26   1
    26    17    29   1
    27    18    19   1
    28    24    18   1
    29    22    21   1
    30    22    23   1
    31    22    24   1
    32    22    25   1
    33    23    35  am
    34    23    36   2
    35    24    25   1
    36    26    27   2
    37    27    28  ar
    38    27    30  ar
    39    28    29   2
    40    28    33  ar
    41    30    31  ar
    42    31    32  ar
    43    32    33  ar
    44    33    34   1
    45    34    43   1
    46    35    37  am
    47    37    38   1
    48    37    39   2
    49    37    40   2
    50    38    41   1
    51    38    42   1
    52    41    42   1
    53    43    44   1
    54    44    45   1
    55    45    46   1
    56    46    47   1
    57    46    48   1
    58    46    49   1
    59     4    54   1
    60     5    55   1
    61     5    56   1
    62     6    57   1
    63     9    58   1
    64    10    59   1
    65    18    60   1
    66    18    61   1
    67    19    62   1
    68    19    63   1
    69    19    64   1
    70    20    65   1
    71    20    66   1
    72    20    67   1
    73    21    68   1
    74    24    69   1
    75    25    70   1
    76    25    71   1
    77    26    72   1
    78    29    73   1
    79    30    74   1
    80    31    75   1
    81    32    76   1
    82    34    77   1
    83    34    78   1
    84    35    79   1
    85    38    80   1
    86    41    81   1
    87    41    82   1
    88    42    83   1
    89    42    84   1
    90    43    85   1
    91    43    86   1
    92    44    87   1
    93    44    88   1
    94    45    89   1
    95    45    90   1
    96    47    91   1
    97    47    92   1
    98    48    93   1
    99    48    94   1
   100    48    95   1
   101    49    96   1
   102    49    97   1
   103    49    98   1
   104    50    99   1
   105    50   100   1
   106    50   101   1
   107    51   102   1
   108    51   103   1
   109    51   104   1
   110    52   105   1
   111    52   106   1
@<TRIPOS>SUBSTRUCTURE
     1  SU3      1

