@<TRIPOS>MOLECULE
3su3_ligand_097
   106   111
SMALL
GAST_HUCK
****
This file was generated by PARSER (from files_GN.cpp)

@<TRIPOS>ATOM
      1 C         -10.2933   -9.4369   10.9695 C.2         1 SU3       0.2013
      2 N         -11.4624  -11.5086   10.1867 N.am        1 SU3      -0.2469
      3 O         -11.1995   -9.2038   11.7566 O.2         1 SU3      -0.3947
      4 CA        -10.2262  -10.7427   10.2964 C.3         1 SU3       0.1363
      5 CB         -9.7357  -10.6095    8.8287 C.3         1 SU3       0.0206
      6 CG        -10.3610  -11.8116    8.1098 C.3         1 SU3       0.1158
      7 CAF       -12.2232  -11.8993   11.2266 C.2         1 SU3       0.2070
      8 OAG       -11.7581  -11.7768   12.3554 O.2         1 SU3      -0.3942
      9 CAH       -13.5791  -12.4829   11.1542 C.3         1 SU3       0.1378
     10 NAI       -13.5232  -13.7871   11.7518 N.am        1 SU3      -0.2407
     11 CAJ       -13.8813  -14.9638   11.1867 C.2         1 SU3       0.3218
     12 OAK       -13.8759  -16.0390   12.0132 O.3         1 SU3      -0.2633
     13 CAL       -14.7427  -11.6073   11.7882 C.3         1 SU3       0.0025
     14 OAM       -14.3236  -15.0506    9.9097 O.2         1 SU3      -0.3774
     15 CAO        -8.3843  -13.3495    7.7882 C.2         1 SU3       0.4317
     16 OAP        -7.7763  -12.5091    6.9188 O.2         1 SU3      -0.3166
     17 NAQ        -7.8033  -14.5232    8.1401 N.am        1 SU3      -0.2080
     18 CAR        -9.1774   -5.9084   13.7212 C.3         1 SU3      -0.0516
     19 CAS       -10.3586   -6.2965   14.6294 C.3         1 SU3      -0.0651
     20 CAT       -14.6343  -11.4598   13.3441 C.3         1 SU3      -0.0558
     21 NAV        -9.3511   -8.5145   10.7671 N.am        1 SU3      -0.2737
     22 CAX        -9.3123   -7.1949   11.3263 C.3         1 SU3       0.1374
     23 CAY       -10.2091   -6.1883   10.7562 C.2         1 SU3       0.2444
     24 CAZ        -8.8043   -7.0835   12.7827 C.3         1 SU3      -0.0066
     25 CBA        -7.8537   -6.7539   11.6244 C.3         1 SU3      -0.0152
     26 CBB        -6.6180  -15.0006    7.6950 C.2         1 SU3       0.0383
     27 CBC        -6.3784  -16.2340    8.2870 C.ar        1 SU3      -0.0374
     28 CBD        -7.4544  -16.5073    9.1293 C.ar        1 SU3      -0.0293
     29 CBE        -8.3224  -15.4233    9.0077 C.2         1 SU3       0.0366
     30 CBF        -5.3111  -17.1393    8.1513 C.ar        1 SU3      -0.0689
     31 CBG        -5.3566  -18.3448    8.8832 C.ar        1 SU3      -0.0688
     32 CBH        -6.4476  -18.6222    9.7337 C.ar        1 SU3      -0.0606
     33 CBI        -7.5167  -17.7021    9.8854 C.ar        1 SU3      -0.0432
     34 CBJ        -8.6554  -18.0097   10.7920 C.3         1 SU3      -0.0194
     35 NBK       -11.4863   -6.4830   10.5733 N.am        1 SU3      -0.1552
     36 OBL        -9.7596   -5.1110   10.3818 O.2         1 SU3      -0.3404
     37 SBM       -12.5750   -5.5990    9.6340 S.o2        1 SU3       0.0645
     38 CBN       -12.3135   -5.8387    7.8603 C.3         1 SU3       0.1004
     39 OBO       -14.0011   -6.2240    9.9609 O.2         1 SU3      -0.1503
     40 OBP       -12.6779   -4.0844   10.1099 O.2         1 SU3      -0.1503
     41 CBQ       -12.4207   -4.6452    6.9004 C.3         1 SU3      -0.0268
     42 CBR       -11.0444   -5.2203    7.2539 C.3         1 SU3      -0.0268
     43 CBS        -9.6751  -18.9738   10.1297 C.3         1 SU3      -0.0433
     44 CBT       -10.8965  -19.3194   11.0266 C.3         1 SU3      -0.0507
     45 CBU       -11.9987  -18.2179   11.0733 C.3         1 SU3      -0.0453
     46 CBV       -13.2171  -18.4578   12.0421 C.3         1 SU3      -0.0072
     47 CBW       -14.3192  -17.3792   11.7601 C.3         1 SU3       0.0824
     48 CBX       -13.8701  -19.8606   11.8063 C.3         1 SU3      -0.0574
     49 CBY       -12.7669  -18.3552   13.5373 C.3         1 SU3      -0.0574
     50 CBZ       -14.7465  -10.1771   11.1510 C.3         1 SU3      -0.0558
     51 CCA       -16.1304  -12.2669   11.4732 C.3         1 SU3      -0.0558
     52 CD1       -11.7118  -11.9286    8.8324 C.3         1 SU3       0.0677
     53 OD2        -9.5951  -13.0099    8.3149 O.3         1 SU3      -0.2338
     54 H1         -9.5004  -11.3547   10.8430 H           1 SU3       0.0803
     55 H2         -8.6447  -10.6191    8.7620 H           1 SU3       0.0342
     56 H3        -10.1078   -9.6914    8.3586 H           1 SU3       0.0342
     57 H4        -10.4988  -11.6329    7.0385 H           1 SU3       0.0673
     58 H5        -13.8553  -12.5918   10.1026 H           1 SU3       0.0805
     59 H6        -13.2554  -13.8280   12.6815 H           1 SU3       0.1899
     60 H7         -8.3140   -5.6644   14.3410 H           1 SU3       0.0265
     61 H8         -9.4483   -5.0198   13.1476 H           1 SU3       0.0265
     62 H9        -10.5899   -5.4702   15.3062 H           1 SU3       0.0230
     63 H10       -10.1098   -7.1761   15.2208 H           1 SU3       0.0230
     64 H11       -11.2457   -6.5133   14.0247 H           1 SU3       0.0230
     65 H12       -15.4946  -10.9180   13.7427 H           1 SU3       0.0237
     66 H13       -13.7407  -10.9063   13.6315 H           1 SU3       0.0237
     67 H14       -14.6035  -12.4363   13.8280 H           1 SU3       0.0237
     68 H15        -8.6380   -8.7405   10.1482 H           1 SU3       0.1839
     69 H16        -8.5524   -8.0305   13.2687 H           1 SU3       0.0312
     70 H17        -7.5906   -5.6982   11.5255 H           1 SU3       0.0279
     71 H18        -7.0561   -7.4892   11.4836 H           1 SU3       0.0279
     72 H19        -5.9944  -14.5427    7.0240 H           1 SU3       0.0373
     73 H20        -9.2154  -15.3308    9.4952 H           1 SU3       0.0361
     74 H21        -4.5248  -16.9339    7.5331 H           1 SU3       0.0557
     75 H22        -4.5953  -19.0197    8.7940 H           1 SU3       0.0599
     76 H23        -6.4556  -19.5062   10.2499 H           1 SU3       0.0557
     77 H24        -9.1617  -17.0908   11.0878 H           1 SU3       0.0426
     78 H25        -8.2718  -18.4602   11.7111 H           1 SU3       0.0426
     79 H26       -11.8101   -7.3323   10.9114 H           1 SU3       0.2148
     80 H27       -12.5725   -6.8116    7.4371 H           1 SU3       0.0559
     81 H28       -12.6308   -3.6652    7.3346 H           1 SU3       0.0285
     82 H29       -12.7590   -4.8645    5.8864 H           1 SU3       0.0285
     83 H30       -10.5659   -5.7842    6.4504 H           1 SU3       0.0285
     84 H31       -10.4360   -4.5654    7.8795 H           1 SU3       0.0285
     85 H32        -9.1570  -19.9074    9.8912 H           1 SU3       0.0287
     86 H33       -10.0286  -18.5457    9.1875 H           1 SU3       0.0287
     87 H34       -10.5417  -19.5460   12.0343 H           1 SU3       0.0267
     88 H35       -11.3426  -20.2323   10.6235 H           1 SU3       0.0267
     89 H36       -12.3787  -18.1032   10.0540 H           1 SU3       0.0271
     90 H37       -11.5285  -17.2691   11.3414 H           1 SU3       0.0271
     91 H38       -14.6878  -17.4763   10.7346 H           1 SU3       0.0617
     92 H39       -15.1736  -17.5438   12.4216 H           1 SU3       0.0617
     93 H40       -13.1894  -20.6666   12.0836 H           1 SU3       0.0236
     94 H41       -14.1416  -19.9851   10.7555 H           1 SU3       0.0236
     95 H42       -14.7748  -19.9750   12.4080 H           1 SU3       0.0236
     96 H43       -12.2684  -17.4024   13.7306 H           1 SU3       0.0236
     97 H44       -12.0742  -19.1569   13.7982 H           1 SU3       0.0236
     98 H45       -13.6260  -18.4294   14.2079 H           1 SU3       0.0236
     99 H46       -14.8368  -10.2369   10.0626 H           1 SU3       0.0237
    100 H47       -13.8249   -9.6419   11.3852 H           1 SU3       0.0237
    101 H48       -15.5822   -9.5820   11.5268 H           1 SU3       0.0237
    102 H49       -16.2100  -13.2569   11.9285 H           1 SU3       0.0237
    103 H50       -16.2782  -12.3784   10.3962 H           1 SU3       0.0237
    104 H51       -16.9531  -11.6578   11.8591 H           1 SU3       0.0237
    105 H52       -12.4554  -11.2697    8.3758 H           1 SU3       0.0553
    106 H53       -12.0528  -12.9651    8.7600 H           1 SU3       0.0553
@<TRIPOS>BOND
     1     1     3   2
     2     1     4   1
     3    21     1  am
     4     4     2   1
     5     2     7  am
     6     2    52   1
     7     4     5   1
     8     5     6   1
     9     6    52   1
    10     6    53   1
    11     7     8   2
    12     7     9   1
    13     9    10   1
    14     9    13   1
    15    10    11  am
    16    11    12   1
    17    11    14   2
    18    12    47   1
    19    13    20   1
    20    13    50   1
    21    13    51   1
    22    15    16   2
    23    15    17  am
    24    53    15   1
    25    17    26   1
    26    17    29   1
    27    18    19   1
    28    24    18   1
    29    22    21   1
    30    22    23   1
    31    22    24   1
    32    22    25   1
    33    23    35  am
    34    23    36   2
    35    24    25   1
    36    26    27   2
    37    27    28  ar
    38    27    30  ar
    39    28    29   2
    40    28    33  ar
    41    30    31  ar
    42    31    32  ar
    43    32    33  ar
    44    33    34   1
    45    34    43   1
    46    35    37  am
    47    37    38   1
    48    37    39   2
    49    37    40   2
    50    38    41   1
    51    38    42   1
    52    41    42   1
    53    43    44   1
    54    44    45   1
    55    45    46   1
    56    46    47   1
    57    46    48   1
    58    46    49   1
    59     4    54   1
    60     5    55   1
    61     5    56   1
    62     6    57   1
    63     9    58   1
    64    10    59   1
    65    18    60   1
    66    18    61   1
    67    19    62   1
    68    19    63   1
    69    19    64   1
    70    20    65   1
    71    20    66   1
    72    20    67   1
    73    21    68   1
    74    24    69   1
    75    25    70   1
    76    25    71   1
    77    26    72   1
    78    29    73   1
    79    30    74   1
    80    31    75   1
    81    32    76   1
    82    34    77   1
    83    34    78   1
    84    35    79   1
    85    38    80   1
    86    41    81   1
    87    41    82   1
    88    42    83   1
    89    42    84   1
    90    43    85   1
    91    43    86   1
    92    44    87   1
    93    44    88   1
    94    45    89   1
    95    45    90   1
    96    47    91   1
    97    47    92   1
    98    48    93   1
    99    48    94   1
   100    48    95   1
   101    49    96   1
   102    49    97   1
   103    49    98   1
   104    50    99   1
   105    50   100   1
   106    50   101   1
   107    51   102   1
   108    51   103   1
   109    51   104   1
   110    52   105   1
   111    52   106   1
@<TRIPOS>SUBSTRUCTURE
     1  SU3      1

