@<TRIPOS>MOLECULE
3su3_ligand_019
   106   111
SMALL
GAST_HUCK
****
This file was generated by PARSER (from files_GN.cpp)

@<TRIPOS>ATOM
      1 C         -16.7836  -17.2705   21.2998 C.2         1 SU3       0.2013
      2 N         -16.9337  -16.7260   18.8776 N.am        1 SU3      -0.2469
      3 O         -15.6743  -17.7256   21.0638 O.2         1 SU3      -0.3947
      4 CA        -17.5420  -16.6618   20.2027 C.3         1 SU3       0.1363
      5 CB        -18.9231  -17.3486   20.0273 C.3         1 SU3       0.0206
      6 CG        -19.2231  -17.1875   18.5320 C.3         1 SU3       0.1158
      7 CAF       -15.7151  -16.2350   18.5815 C.2         1 SU3       0.2070
      8 OAG       -15.1724  -15.5316   19.4300 O.2         1 SU3      -0.3942
      9 CAH       -14.9330  -16.4675   17.3492 C.3         1 SU3       0.1378
     10 NAI       -14.5545  -15.1736   16.8477 N.am        1 SU3      -0.2407
     11 CAJ       -14.8407  -14.6719   15.6259 C.2         1 SU3       0.3218
     12 OAK       -14.2788  -13.4770   15.3110 O.3         1 SU3      -0.2633
     13 CAL       -13.6809  -17.4538   17.4907 C.3         1 SU3       0.0025
     14 OAM       -15.5860  -15.3514   14.7205 O.2         1 SU3      -0.3774
     15 CAO       -20.9642  -15.3527   18.4895 C.2         1 SU3       0.4317
     16 OAP       -21.9296  -16.1310   19.0350 O.2         1 SU3      -0.3166
     17 NAQ       -21.2015  -14.0526   18.1854 N.am        1 SU3      -0.2080
     18 CAR       -16.0514  -17.2607   26.2349 C.3         1 SU3      -0.0516
     19 CAS       -16.8033  -17.1139   27.5725 C.3         1 SU3      -0.0651
     20 CAT       -14.1552  -18.9329   17.2877 C.3         1 SU3      -0.0558
     21 NAV       -17.3137  -17.3752   22.5193 N.am        1 SU3      -0.2737
     22 CAX       -16.7426  -17.9888   23.6925 C.3         1 SU3       0.1374
     23 CAY       -15.5065  -18.7474   23.6202 C.2         1 SU3       0.2444
     24 CAZ       -17.0110  -17.2148   25.0127 C.3         1 SU3      -0.0066
     25 CBA       -17.7946  -18.4971   24.7016 C.3         1 SU3      -0.0152
     26 CBB       -22.3758  -13.3956   18.3237 C.2         1 SU3       0.0383
     27 CBC       -22.1999  -12.0775   17.9220 C.ar        1 SU3      -0.0374
     28 CBD       -20.8704  -11.9313   17.5284 C.ar        1 SU3      -0.0293
     29 CBE       -20.2850  -13.1855   17.6979 C.2         1 SU3       0.0366
     30 CBF       -23.0988  -10.9977   17.8729 C.ar        1 SU3      -0.0689
     31 CBG       -22.6278   -9.7556   17.4084 C.ar        1 SU3      -0.0688
     32 CBH       -21.2827   -9.6059   17.0071 C.ar        1 SU3      -0.0606
     33 CBI       -20.3681  -10.6915   17.0662 C.ar        1 SU3      -0.0432
     34 CBJ       -18.9449  -10.5013   16.6634 C.3         1 SU3      -0.0194
     35 NBK       -15.5591  -20.0500   23.4064 N.am        1 SU3      -0.1552
     36 OBL       -14.4578  -18.1162   23.6245 O.2         1 SU3      -0.3404
     37 SBM       -14.2507  -21.0811   23.1342 S.o2        1 SU3       0.0645
     38 CBN       -14.2539  -21.8414   21.4912 C.3         1 SU3       0.1004
     39 OBO       -12.8563  -20.3278   23.2854 O.2         1 SU3      -0.1503
     40 OBP       -14.2651  -22.2166   24.2458 O.2         1 SU3      -0.1503
     41 CBQ       -15.4872  -22.6836   21.1276 C.3         1 SU3      -0.0268
     42 CBR       -15.2446  -21.3402   20.4269 C.3         1 SU3      -0.0268
     43 CBS       -18.7786  -10.3548   15.1265 C.3         1 SU3      -0.0433
     44 CBT       -17.3091  -10.1615   14.6549 C.3         1 SU3      -0.0507
     45 CBU       -16.4527  -11.4649   14.6317 C.3         1 SU3      -0.0453
     46 CBV       -14.9419  -11.3371   14.1979 C.3         1 SU3      -0.0072
     47 CBW       -14.3240  -12.7713   14.0630 C.3         1 SU3       0.0824
     48 CBX       -14.8076  -10.6369   12.8056 C.3         1 SU3      -0.0574
     49 CBY       -14.1172  -10.5301   15.2538 C.3         1 SU3      -0.0574
     50 CBZ       -12.6018  -17.1665   16.3868 C.3         1 SU3      -0.0558
     51 CCA       -12.9435  -17.3838   18.8707 C.3         1 SU3      -0.0558
     52 CD1       -17.8205  -17.3125   17.9121 C.3         1 SU3       0.0677
     53 OD2       -19.7326  -15.8775   18.2448 O.3         1 SU3      -0.2338
     54 H1        -17.7061  -15.6045   20.4451 H           1 SU3       0.0803
     55 H2        -19.6903  -16.8849   20.6521 H           1 SU3       0.0342
     56 H3        -18.8797  -18.4173   20.2628 H           1 SU3       0.0342
     57 H4        -19.9002  -17.9575   18.1486 H           1 SU3       0.0673
     58 H5        -15.5834  -16.9239   16.6051 H           1 SU3       0.0805
     59 H6        -13.9865  -14.6338   17.4206 H           1 SU3       0.1899
     60 H7        -15.4876  -18.1950   26.2733 H           1 SU3       0.0265
     61 H8        -15.3355  -16.4409   26.1315 H           1 SU3       0.0265
     62 H9        -16.0920  -17.1481   28.3999 H           1 SU3       0.0230
     63 H10       -17.5191  -17.9290   27.6952 H           1 SU3       0.0230
     64 H11       -17.3369  -16.1626   27.6074 H           1 SU3       0.0230
     65 H12       -13.3242  -19.6364   17.3961 H           1 SU3       0.0237
     66 H13       -14.5755  -19.0735   16.2863 H           1 SU3       0.0237
     67 H14       -14.9208  -19.1926   18.0191 H           1 SU3       0.0237
     68 H15       -18.2157  -17.0305   22.6201 H           1 SU3       0.1839
     69 H16       -17.6127  -16.3097   24.8996 H           1 SU3       0.0312
     70 H17       -17.5312  -19.3779   25.2936 H           1 SU3       0.0279
     71 H18       -18.8419  -18.3383   24.4415 H           1 SU3       0.0279
     72 H19       -23.2551  -13.7899   18.6650 H           1 SU3       0.0373
     73 H20       -19.3091  -13.4089   17.4925 H           1 SU3       0.0361
     74 H21       -24.0721  -11.1138   18.1641 H           1 SU3       0.0557
     75 H22       -23.2639   -8.9561   17.3595 H           1 SU3       0.0599
     76 H23       -20.9744   -8.6924   16.6713 H           1 SU3       0.0557
     77 H24       -18.3366  -11.3383   17.0049 H           1 SU3       0.0426
     78 H25       -18.5525   -9.6122   17.1620 H           1 SU3       0.0426
     79 H26       -16.4414  -20.4510   23.3549 H           1 SU3       0.2148
     80 H27       -13.3172  -22.2495   21.1068 H           1 SU3       0.0559
     81 H28       -16.3181  -22.6887   21.8338 H           1 SU3       0.0285
     82 H29       -15.3065  -23.5654   20.5106 H           1 SU3       0.0285
     83 H30       -14.9173  -21.4170   19.3881 H           1 SU3       0.0285
     84 H31       -15.9424  -20.5520   20.7105 H           1 SU3       0.0285
     85 H32       -19.3508   -9.4811   14.8006 H           1 SU3       0.0287
     86 H33       -19.2058  -11.2292   14.6273 H           1 SU3       0.0287
     87 H34       -16.8331   -9.4089   15.2865 H           1 SU3       0.0267
     88 H35       -17.3505   -9.7609   13.6393 H           1 SU3       0.0267
     89 H36       -16.9512  -12.1628   13.9519 H           1 SU3       0.0271
     90 H37       -16.4871  -11.9156   15.6260 H           1 SU3       0.0271
     91 H38       -14.8739  -13.3439   13.3109 H           1 SU3       0.0617
     92 H39       -13.2903  -12.7006   13.7161 H           1 SU3       0.0617
     93 H40       -15.1203   -9.5921   12.8542 H           1 SU3       0.0236
     94 H41       -15.4212  -11.1454   12.0580 H           1 SU3       0.0236
     95 H42       -13.7706  -10.6505   12.4604 H           1 SU3       0.0236
     96 H43       -14.2068  -10.9809   16.2437 H           1 SU3       0.0236
     97 H44       -14.4604   -9.4965   15.3200 H           1 SU3       0.0236
     98 H45       -13.0573  -10.5116   14.9879 H           1 SU3       0.0236
     99 H46       -12.1461  -16.1816   16.5322 H           1 SU3       0.0237
    100 H47       -13.0458  -17.1924   15.3881 H           1 SU3       0.0237
    101 H48       -11.7928  -17.9036   16.4141 H           1 SU3       0.0237
    102 H49       -13.5943  -17.7071   19.6819 H           1 SU3       0.0237
    103 H50       -12.6211  -16.3666   19.0804 H           1 SU3       0.0237
    104 H51       -12.0578  -18.0180   18.8763 H           1 SU3       0.0237
    105 H52       -17.5563  -18.3614   17.7481 H           1 SU3       0.0553
    106 H53       -17.8130  -16.7862   16.9524 H           1 SU3       0.0553
@<TRIPOS>BOND
     1     1     3   2
     2     1     4   1
     3    21     1  am
     4     4     2   1
     5     2     7  am
     6     2    52   1
     7     4     5   1
     8     5     6   1
     9     6    52   1
    10     6    53   1
    11     7     8   2
    12     7     9   1
    13     9    10   1
    14     9    13   1
    15    10    11  am
    16    11    12   1
    17    11    14   2
    18    12    47   1
    19    13    20   1
    20    13    50   1
    21    13    51   1
    22    15    16   2
    23    15    17  am
    24    53    15   1
    25    17    26   1
    26    17    29   1
    27    18    19   1
    28    24    18   1
    29    22    21   1
    30    22    23   1
    31    22    24   1
    32    22    25   1
    33    23    35  am
    34    23    36   2
    35    24    25   1
    36    26    27   2
    37    27    28  ar
    38    27    30  ar
    39    28    29   2
    40    28    33  ar
    41    30    31  ar
    42    31    32  ar
    43    32    33  ar
    44    33    34   1
    45    34    43   1
    46    35    37  am
    47    37    38   1
    48    37    39   2
    49    37    40   2
    50    38    41   1
    51    38    42   1
    52    41    42   1
    53    43    44   1
    54    44    45   1
    55    45    46   1
    56    46    47   1
    57    46    48   1
    58    46    49   1
    59     4    54   1
    60     5    55   1
    61     5    56   1
    62     6    57   1
    63     9    58   1
    64    10    59   1
    65    18    60   1
    66    18    61   1
    67    19    62   1
    68    19    63   1
    69    19    64   1
    70    20    65   1
    71    20    66   1
    72    20    67   1
    73    21    68   1
    74    24    69   1
    75    25    70   1
    76    25    71   1
    77    26    72   1
    78    29    73   1
    79    30    74   1
    80    31    75   1
    81    32    76   1
    82    34    77   1
    83    34    78   1
    84    35    79   1
    85    38    80   1
    86    41    81   1
    87    41    82   1
    88    42    83   1
    89    42    84   1
    90    43    85   1
    91    43    86   1
    92    44    87   1
    93    44    88   1
    94    45    89   1
    95    45    90   1
    96    47    91   1
    97    47    92   1
    98    48    93   1
    99    48    94   1
   100    48    95   1
   101    49    96   1
   102    49    97   1
   103    49    98   1
   104    50    99   1
   105    50   100   1
   106    50   101   1
   107    51   102   1
   108    51   103   1
   109    51   104   1
   110    52   105   1
   111    52   106   1
@<TRIPOS>SUBSTRUCTURE
     1  SU3      1

