@<TRIPOS>MOLECULE
3su3_ligand_076
   106   111
SMALL
GAST_HUCK
****
This file was generated by PARSER (from files_GN.cpp)

@<TRIPOS>ATOM
      1 C          -7.8989   -1.8474   11.7666 C.2         1 SU3       0.2013
      2 N          -6.4980   -0.6064   10.2071 N.am        1 SU3      -0.2469
      3 O          -9.0671   -1.6308   11.4757 O.2         1 SU3      -0.3947
      4 CA         -6.9193   -0.7696   11.5838 C.3         1 SU3       0.1363
      5 CB         -7.4494    0.6209   12.0436 C.3         1 SU3       0.0206
      6 CG         -6.9396    1.6124   10.9822 C.3         1 SU3       0.1158
      7 CAF        -5.8685   -1.5666    9.4976 C.2         1 SU3       0.2070
      8 OAG        -5.4992   -2.5633   10.1084 O.2         1 SU3      -0.3942
      9 CAH        -5.4268   -1.4957    8.0954 C.3         1 SU3       0.1378
     10 NAI        -3.9848   -1.4565    8.1329 N.am        1 SU3      -0.2407
     11 CAJ        -3.1942   -0.5499    7.5050 C.2         1 SU3       0.3218
     12 OAK        -1.8618   -0.8133    7.4691 O.3         1 SU3      -0.2633
     13 CAL        -5.9885   -2.6074    7.0950 C.3         1 SU3       0.0025
     14 OAM        -3.7148    0.5024    6.8254 O.2         1 SU3      -0.3774
     15 CAO        -5.5659    3.2326   12.3134 C.2         1 SU3       0.4317
     16 OAP        -6.6693    3.7455   12.9113 O.2         1 SU3      -0.3166
     17 NAQ        -4.3305    3.6801   12.6578 N.am        1 SU3      -0.2080
     18 CAR        -7.8425   -6.9967   11.7120 C.3         1 SU3      -0.0516
     19 CAS        -8.8771   -7.0280   10.5645 C.3         1 SU3      -0.0651
     20 CAT        -7.2625   -2.0596    6.3609 C.3         1 SU3      -0.0558
     21 NAV        -7.4986   -3.0571   12.1488 N.am        1 SU3      -0.2737
     22 CAX        -8.2220   -4.2963   12.3097 C.3         1 SU3       0.1374
     23 CAY        -9.6105   -4.4883   11.8926 C.2         1 SU3       0.2444
     24 CAZ        -7.3472   -5.5563   12.0407 C.3         1 SU3      -0.0066
     25 CBA        -7.6302   -5.1098   13.4881 C.3         1 SU3      -0.0152
     26 CBB        -4.0555    4.6278   13.5836 C.2         1 SU3       0.0383
     27 CBC        -2.6771    4.7657   13.6932 C.ar        1 SU3      -0.0374
     28 CBD        -2.1026    3.8685   12.7953 C.ar        1 SU3      -0.0293
     29 CBE        -3.1597    3.2230   12.1587 C.2         1 SU3       0.0366
     30 CBF        -1.8871    5.5928   14.5077 C.ar        1 SU3      -0.0689
     31 CBG        -0.4853    5.4946   14.4048 C.ar        1 SU3      -0.0688
     32 CBH         0.1024    4.5780   13.5035 C.ar        1 SU3      -0.0606
     33 CBI        -0.6980    3.7410   12.6840 C.ar        1 SU3      -0.0432
     34 CBJ        -0.0727    2.7953   11.7208 C.3         1 SU3      -0.0194
     35 NBK       -10.5216   -4.9930   12.7063 N.am        1 SU3      -0.1552
     36 OBL        -9.8884   -4.2397   10.7276 O.2         1 SU3      -0.3404
     37 SBM       -12.1139   -5.3766   12.2946 S.o2        1 SU3       0.0645
     38 CBN       -12.8546   -6.6536   13.3405 C.3         1 SU3       0.1004
     39 OBO       -13.0326   -4.0808   12.4011 O.2         1 SU3      -0.1503
     40 OBP       -12.1747   -5.9451   10.8082 O.2         1 SU3      -0.1503
     41 CBQ       -11.9546   -7.4756   14.2785 C.3         1 SU3      -0.0268
     42 CBR       -12.8837   -6.3933   14.8549 C.3         1 SU3      -0.0268
     43 CBS         0.1165    3.4556   10.3289 C.3         1 SU3      -0.0433
     44 CBT         0.7348    2.5109    9.2608 C.3         1 SU3      -0.0507
     45 CBU        -0.2905    1.5787    8.5483 C.3         1 SU3      -0.0453
     46 CBV         0.2996    0.4769    7.5898 C.3         1 SU3      -0.0072
     47 CBW        -0.8518   -0.1194    6.7102 C.3         1 SU3       0.0824
     48 CBX         1.3621    1.0811    6.6136 C.3         1 SU3      -0.0574
     49 CBY         0.9625   -0.6758    8.4117 C.3         1 SU3      -0.0574
     50 CBZ        -4.9508   -2.9593    5.9666 C.3         1 SU3      -0.0558
     51 CCA        -6.3837   -3.9647    7.7777 C.3         1 SU3      -0.0558
     52 CD1        -6.7056    0.7314    9.7388 C.3         1 SU3       0.0677
     53 OD2        -5.7100    2.2402   11.3897 O.3         1 SU3      -0.2338
     54 H1         -6.0245   -0.9873   12.1833 H           1 SU3       0.0803
     55 H2         -7.0790    0.8675   13.0415 H           1 SU3       0.0342
     56 H3         -8.5434    0.6760   12.0702 H           1 SU3       0.0342
     57 H4         -7.6812    2.3838   10.7534 H           1 SU3       0.0673
     58 H5         -5.7605   -0.5461    7.6803 H           1 SU3       0.0805
     59 H6         -3.5369   -2.2091    8.5536 H           1 SU3       0.1899
     60 H7         -6.9717   -7.5905   11.4120 H           1 SU3       0.0265
     61 H8         -8.2878   -7.4931   12.5851 H           1 SU3       0.0265
     62 H9         -9.0186   -8.0581   10.2141 H           1 SU3       0.0230
     63 H10        -8.5394   -6.4043    9.7288 H           1 SU3       0.0230
     64 H11        -9.8397   -6.6553   10.9377 H           1 SU3       0.0230
     65 H12        -7.7219   -2.8203    5.7241 H           1 SU3       0.0237
     66 H13        -7.0069   -1.2053    5.7271 H           1 SU3       0.0237
     67 H14        -8.0043   -1.7268    7.0846 H           1 SU3       0.0237
     68 H15        -6.5499   -3.1162   12.3460 H           1 SU3       0.1839
     69 H16        -6.3329   -5.3275   11.7008 H           1 SU3       0.0312
     70 H17        -8.3163   -5.7174   14.0743 H           1 SU3       0.0279
     71 H18        -6.7746   -4.6844   14.0101 H           1 SU3       0.0279
     72 H19        -4.7376    5.1527   14.1355 H           1 SU3       0.0373
     73 H20        -3.0576    2.4980   11.4446 H           1 SU3       0.0361
     74 H21        -2.3178    6.2495   15.1610 H           1 SU3       0.0557
     75 H22         0.1094    6.0917   14.9837 H           1 SU3       0.0599
     76 H23         1.1242    4.5325   13.4464 H           1 SU3       0.0557
     77 H24        -0.6861    1.8960   11.6326 H           1 SU3       0.0426
     78 H25         0.9016    2.4726   12.0999 H           1 SU3       0.0426
     79 H26       -10.2567   -5.1854   13.6166 H           1 SU3       0.2148
     80 H27       -13.7359   -7.1801   12.9648 H           1 SU3       0.0559
     81 H28       -10.8901   -7.2329   14.2809 H           1 SU3       0.0285
     82 H29       -12.2699   -8.5044   14.4686 H           1 SU3       0.0285
     83 H30       -13.7608   -6.7681   15.3869 H           1 SU3       0.0285
     84 H31       -12.3846   -5.4910   15.2137 H           1 SU3       0.0285
     85 H32         0.7855    4.3141   10.4542 H           1 SU3       0.0287
     86 H33        -0.8416    3.8388    9.9640 H           1 SU3       0.0287
     87 H34         1.5287    1.9228    9.7248 H           1 SU3       0.0267
     88 H35         1.2009    3.1473    8.5037 H           1 SU3       0.0267
     89 H36        -0.9580    2.2268    7.9742 H           1 SU3       0.0271
     90 H37        -0.9054    1.0894    9.3069 H           1 SU3       0.0271
     91 H38        -1.2963    0.6731    6.0972 H           1 SU3       0.0617
     92 H39        -0.4417   -0.8586    6.0144 H           1 SU3       0.0617
     93 H40         2.2437    1.4267    7.1553 H           1 SU3       0.0236
     94 H41         0.9392    1.9276    6.0687 H           1 SU3       0.0236
     95 H42         1.6972    0.3389    5.8858 H           1 SU3       0.0236
     96 H43         0.2529   -1.1080    9.1215 H           1 SU3       0.0236
     97 H44         1.8240   -0.3152    8.9740 H           1 SU3       0.0236
     98 H45         1.3070   -1.4752    7.7503 H           1 SU3       0.0236
     99 H46        -4.0481   -3.4042    6.3951 H           1 SU3       0.0237
    100 H47        -4.6583   -2.0618    5.4127 H           1 SU3       0.0237
    101 H48        -5.3605   -3.6792    5.2494 H           1 SU3       0.0237
    102 H49        -7.1867   -3.8129    8.5020 H           1 SU3       0.0237
    103 H50        -5.5252   -4.4006    8.2932 H           1 SU3       0.0237
    104 H51        -6.7380   -4.6963    7.0453 H           1 SU3       0.0237
    105 H52        -7.5783    0.7541    9.0804 H           1 SU3       0.0553
    106 H53        -5.8411    1.1228    9.1987 H           1 SU3       0.0553
@<TRIPOS>BOND
     1     1     3   2
     2     1     4   1
     3    21     1  am
     4     4     2   1
     5     2     7  am
     6     2    52   1
     7     4     5   1
     8     5     6   1
     9     6    52   1
    10     6    53   1
    11     7     8   2
    12     7     9   1
    13     9    10   1
    14     9    13   1
    15    10    11  am
    16    11    12   1
    17    11    14   2
    18    12    47   1
    19    13    20   1
    20    13    50   1
    21    13    51   1
    22    15    16   2
    23    15    17  am
    24    53    15   1
    25    17    26   1
    26    17    29   1
    27    18    19   1
    28    24    18   1
    29    22    21   1
    30    22    23   1
    31    22    24   1
    32    22    25   1
    33    23    35  am
    34    23    36   2
    35    24    25   1
    36    26    27   2
    37    27    28  ar
    38    27    30  ar
    39    28    29   2
    40    28    33  ar
    41    30    31  ar
    42    31    32  ar
    43    32    33  ar
    44    33    34   1
    45    34    43   1
    46    35    37  am
    47    37    38   1
    48    37    39   2
    49    37    40   2
    50    38    41   1
    51    38    42   1
    52    41    42   1
    53    43    44   1
    54    44    45   1
    55    45    46   1
    56    46    47   1
    57    46    48   1
    58    46    49   1
    59     4    54   1
    60     5    55   1
    61     5    56   1
    62     6    57   1
    63     9    58   1
    64    10    59   1
    65    18    60   1
    66    18    61   1
    67    19    62   1
    68    19    63   1
    69    19    64   1
    70    20    65   1
    71    20    66   1
    72    20    67   1
    73    21    68   1
    74    24    69   1
    75    25    70   1
    76    25    71   1
    77    26    72   1
    78    29    73   1
    79    30    74   1
    80    31    75   1
    81    32    76   1
    82    34    77   1
    83    34    78   1
    84    35    79   1
    85    38    80   1
    86    41    81   1
    87    41    82   1
    88    42    83   1
    89    42    84   1
    90    43    85   1
    91    43    86   1
    92    44    87   1
    93    44    88   1
    94    45    89   1
    95    45    90   1
    96    47    91   1
    97    47    92   1
    98    48    93   1
    99    48    94   1
   100    48    95   1
   101    49    96   1
   102    49    97   1
   103    49    98   1
   104    50    99   1
   105    50   100   1
   106    50   101   1
   107    51   102   1
   108    51   103   1
   109    51   104   1
   110    52   105   1
   111    52   106   1
@<TRIPOS>SUBSTRUCTURE
     1  SU3      1

