@<TRIPOS>MOLECULE
3su3_ligand_055
   106   111
SMALL
GAST_HUCK
****
This file was generated by PARSER (from files_GN.cpp)

@<TRIPOS>ATOM
      1 C         -10.5647   -6.2449   10.1971 C.2         1 SU3       0.2013
      2 N         -12.4591   -6.3972    8.7027 N.am        1 SU3      -0.2469
      3 O         -10.4386   -5.0283   10.0935 O.2         1 SU3      -0.3947
      4 CA        -11.1967   -6.9830    9.0992 C.3         1 SU3       0.1363
      5 CB        -10.3049   -6.9717    7.8290 C.3         1 SU3       0.0206
      6 CG        -11.2993   -6.7675    6.6756 C.3         1 SU3       0.1158
      7 CAF       -13.5195   -6.2753    9.5230 C.2         1 SU3       0.2070
      8 OAG       -13.5121   -6.9099   10.5687 O.2         1 SU3      -0.3942
      9 CAH       -14.6717   -5.3955    9.2947 C.3         1 SU3       0.1378
     10 NAI       -15.8228   -6.2250    9.1027 N.am        1 SU3      -0.2407
     11 CAJ       -16.6588   -6.2309    8.0471 C.2         1 SU3       0.3218
     12 OAK       -17.7822   -6.9809    8.1702 O.3         1 SU3      -0.2633
     13 CAL       -14.9341   -4.3058   10.4238 C.3         1 SU3       0.0025
     14 OAM       -16.4599   -5.4509    6.9576 O.2         1 SU3      -0.3774
     15 CAO       -11.2390   -8.9720    5.4556 C.2         1 SU3       0.4317
     16 OAP        -9.9542   -8.8039    5.0621 O.2         1 SU3      -0.3166
     17 NAQ       -11.9357  -10.0825    5.1006 N.am        1 SU3      -0.2080
     18 CAR        -7.6252   -6.8114   14.2305 C.3         1 SU3      -0.0516
     19 CAS        -7.5693   -5.5738   15.1567 C.3         1 SU3      -0.0651
     20 CAT       -15.4922   -2.9952    9.7648 C.3         1 SU3      -0.0558
     21 NAV       -10.1293   -6.8735   11.2805 N.am        1 SU3      -0.2737
     22 CAX        -9.5793   -6.2255   12.4312 C.3         1 SU3       0.1374
     23 CAY       -10.5138   -5.9892   13.5187 C.2         1 SU3       0.2444
     24 CAZ        -8.1252   -6.6281   12.7668 C.3         1 SU3      -0.0066
     25 CBA        -8.4145   -5.2353   12.1782 C.3         1 SU3      -0.0152
     26 CBB       -11.4751  -11.1053    4.3481 C.2         1 SU3       0.0383
     27 CBC       -12.4892  -12.0417    4.1975 C.ar        1 SU3      -0.0374
     28 CBD       -13.6015  -11.5718    4.8937 C.ar        1 SU3      -0.0293
     29 CBE       -13.2191  -10.3466    5.4386 C.2         1 SU3       0.0366
     30 CBF       -12.5258  -13.2594    3.4978 C.ar        1 SU3      -0.0689
     31 CBG       -13.7235  -14.0029    3.5087 C.ar        1 SU3      -0.0688
     32 CBH       -14.8512  -13.5309    4.2121 C.ar        1 SU3      -0.0606
     33 CBI       -14.8138  -12.3055    4.9283 C.ar        1 SU3      -0.0432
     34 CBJ       -16.0158  -11.8234    5.6589 C.3         1 SU3      -0.0194
     35 NBK       -11.0605   -7.0422   14.0998 N.am        1 SU3      -0.1552
     36 OBL       -10.8739   -4.8499   13.7847 O.2         1 SU3      -0.3404
     37 SBM       -12.2702   -6.9954   15.2725 S.o2        1 SU3       0.0645
     38 CBN       -13.2539   -8.5030   15.0892 C.3         1 SU3       0.1004
     39 OBO       -11.6244   -6.9634   16.7297 O.2         1 SU3      -0.1503
     40 OBP       -13.2199   -5.7310   15.0581 O.2         1 SU3      -0.1503
     41 CBQ       -14.7727   -8.4361   14.8710 C.3         1 SU3      -0.0268
     42 CBR       -13.8416   -8.7237   13.6870 C.3         1 SU3      -0.0268
     43 CBS       -17.0478  -11.1670    4.7024 C.3         1 SU3      -0.0433
     44 CBT       -18.2946  -10.5797    5.4214 C.3         1 SU3      -0.0507
     45 CBU       -18.0664   -9.1820    6.0741 C.3         1 SU3      -0.0453
     46 CBV       -19.2592   -8.5659    6.8978 C.3         1 SU3      -0.0072
     47 CBW       -18.9075   -7.0865    7.2816 C.3         1 SU3       0.0824
     48 CBX       -20.5752   -8.5335    6.0537 C.3         1 SU3      -0.0574
     49 CBY       -19.5182   -9.3821    8.2068 C.3         1 SU3      -0.0574
     50 CBZ       -15.9690   -4.7660   11.5139 C.3         1 SU3      -0.0558
     51 CCA       -13.6098   -3.9093   11.1700 C.3         1 SU3      -0.0558
     52 CD1       -12.4259   -5.9557    7.3399 C.3         1 SU3       0.0677
     53 OD2       -11.8447   -8.0070    6.1974 O.3         1 SU3      -0.2338
     54 H1        -11.3676   -8.0282    9.3830 H           1 SU3       0.0803
     55 H2         -9.7358   -7.8994    7.7185 H           1 SU3       0.0342
     56 H3         -9.5976   -6.1357    7.8314 H           1 SU3       0.0342
     57 H4        -10.8528   -6.2115    5.8430 H           1 SU3       0.0673
     58 H5        -14.4850   -4.8239    8.3903 H           1 SU3       0.0805
     59 H6        -16.0619   -6.8077    9.8398 H           1 SU3       0.1899
     60 H7         -8.2276   -7.5782   14.7198 H           1 SU3       0.0265
     61 H8         -6.6069   -7.1960   14.1772 H           1 SU3       0.0265
     62 H9         -7.1739   -5.8509   16.1264 H           1 SU3       0.0230
     63 H10        -8.5723   -5.1556   15.2971 H           1 SU3       0.0230
     64 H11        -6.9256   -4.7987   14.7259 H           1 SU3       0.0230
     65 H12       -15.6848   -2.2191   10.5128 H           1 SU3       0.0237
     66 H13       -16.4251   -3.1964    9.2330 H           1 SU3       0.0237
     67 H14       -14.7755   -2.5843    9.0462 H           1 SU3       0.0237
     68 H15       -10.2377   -7.8354   11.3283 H           1 SU3       0.1839
     69 H16        -7.6993   -7.3175   12.0402 H           1 SU3       0.0312
     70 H17        -8.3757   -4.3795   12.8454 H           1 SU3       0.0279
     71 H18        -8.1304   -5.0874   11.1326 H           1 SU3       0.0279
     72 H19       -10.5404  -11.1868    3.9400 H           1 SU3       0.0373
     73 H20       -13.8224   -9.7407    6.0004 H           1 SU3       0.0361
     74 H21       -11.7076  -13.5942    2.9874 H           1 SU3       0.0557
     75 H22       -13.7722  -14.8904    3.0024 H           1 SU3       0.0599
     76 H23       -15.7073  -14.0925    4.2032 H           1 SU3       0.0557
     77 H24       -15.7281  -11.1084    6.4290 H           1 SU3       0.0426
     78 H25       -16.4826  -12.6662    6.1761 H           1 SU3       0.0426
     79 H26       -10.7232   -7.9215   13.8622 H           1 SU3       0.2148
     80 H27       -12.8662   -9.4203   15.5456 H           1 SU3       0.0559
     81 H28       -15.2339   -7.4450   14.8738 H           1 SU3       0.0285
     82 H29       -15.3431   -9.2969   15.2256 H           1 SU3       0.0285
     83 H30       -13.8507   -9.7542   13.3290 H           1 SU3       0.0285
     84 H31       -13.7439   -7.9094   12.9667 H           1 SU3       0.0285
     85 H32       -17.3922  -11.9290    3.9970 H           1 SU3       0.0287
     86 H33       -16.5633  -10.3785    4.1212 H           1 SU3       0.0287
     87 H34       -18.6419  -11.2957    6.1690 H           1 SU3       0.0267
     88 H35       -19.0832  -10.4825    4.6700 H           1 SU3       0.0267
     89 H36       -17.8079   -8.4919    5.2657 H           1 SU3       0.0271
     90 H37       -17.1936   -9.2427    6.7275 H           1 SU3       0.0271
     91 H38       -18.7384   -6.4947    6.3779 H           1 SU3       0.0617
     92 H39       -19.7518   -6.6302    7.8085 H           1 SU3       0.0617
     93 H40       -20.9333   -9.5428    5.8429 H           1 SU3       0.0236
     94 H41       -20.4107   -8.0218    5.1029 H           1 SU3       0.0236
     95 H42       -21.3714   -8.0107    6.5892 H           1 SU3       0.0236
     96 H43       -18.6065   -9.4658    8.8026 H           1 SU3       0.0236
     97 H44       -19.8672  -10.3904    7.9808 H           1 SU3       0.0236
     98 H45       -20.2811   -8.8980    8.8219 H           1 SU3       0.0236
     99 H46       -15.6486   -5.6876   12.0037 H           1 SU3       0.0237
    100 H47       -16.9508   -4.9490   11.0651 H           1 SU3       0.0237
    101 H48       -16.1009   -4.0055   12.2870 H           1 SU3       0.0237
    102 H49       -12.8280   -3.6373   10.4529 H           1 SU3       0.0237
    103 H50       -13.2375   -4.7449   11.7760 H           1 SU3       0.0237
    104 H51       -13.7641   -3.0626   11.8471 H           1 SU3       0.0237
    105 H52       -12.1954   -4.8881    7.3083 H           1 SU3       0.0553
    106 H53       -13.3656   -6.1341    6.8104 H           1 SU3       0.0553
@<TRIPOS>BOND
     1     1     3   2
     2     1     4   1
     3    21     1  am
     4     4     2   1
     5     2     7  am
     6     2    52   1
     7     4     5   1
     8     5     6   1
     9     6    52   1
    10     6    53   1
    11     7     8   2
    12     7     9   1
    13     9    10   1
    14     9    13   1
    15    10    11  am
    16    11    12   1
    17    11    14   2
    18    12    47   1
    19    13    20   1
    20    13    50   1
    21    13    51   1
    22    15    16   2
    23    15    17  am
    24    53    15   1
    25    17    26   1
    26    17    29   1
    27    18    19   1
    28    24    18   1
    29    22    21   1
    30    22    23   1
    31    22    24   1
    32    22    25   1
    33    23    35  am
    34    23    36   2
    35    24    25   1
    36    26    27   2
    37    27    28  ar
    38    27    30  ar
    39    28    29   2
    40    28    33  ar
    41    30    31  ar
    42    31    32  ar
    43    32    33  ar
    44    33    34   1
    45    34    43   1
    46    35    37  am
    47    37    38   1
    48    37    39   2
    49    37    40   2
    50    38    41   1
    51    38    42   1
    52    41    42   1
    53    43    44   1
    54    44    45   1
    55    45    46   1
    56    46    47   1
    57    46    48   1
    58    46    49   1
    59     4    54   1
    60     5    55   1
    61     5    56   1
    62     6    57   1
    63     9    58   1
    64    10    59   1
    65    18    60   1
    66    18    61   1
    67    19    62   1
    68    19    63   1
    69    19    64   1
    70    20    65   1
    71    20    66   1
    72    20    67   1
    73    21    68   1
    74    24    69   1
    75    25    70   1
    76    25    71   1
    77    26    72   1
    78    29    73   1
    79    30    74   1
    80    31    75   1
    81    32    76   1
    82    34    77   1
    83    34    78   1
    84    35    79   1
    85    38    80   1
    86    41    81   1
    87    41    82   1
    88    42    83   1
    89    42    84   1
    90    43    85   1
    91    43    86   1
    92    44    87   1
    93    44    88   1
    94    45    89   1
    95    45    90   1
    96    47    91   1
    97    47    92   1
    98    48    93   1
    99    48    94   1
   100    48    95   1
   101    49    96   1
   102    49    97   1
   103    49    98   1
   104    50    99   1
   105    50   100   1
   106    50   101   1
   107    51   102   1
   108    51   103   1
   109    51   104   1
   110    52   105   1
   111    52   106   1
@<TRIPOS>SUBSTRUCTURE
     1  SU3      1

