@<TRIPOS>MOLECULE
3su3_ligand_083
   106   111
SMALL
GAST_HUCK
****
This file was generated by PARSER (from files_GN.cpp)

@<TRIPOS>ATOM
      1 C         -19.5095  -12.5650   15.3442 C.2         1 SU3       0.2013
      2 N         -18.8508  -14.8718   14.9724 N.am        1 SU3      -0.2469
      3 O         -20.6720  -12.8375   15.0587 O.2         1 SU3      -0.3947
      4 CA        -18.4491  -13.4839   14.9414 C.3         1 SU3       0.1363
      5 CB        -17.9946  -13.2077   13.4838 C.3         1 SU3       0.0206
      6 CG        -17.6977  -14.6057   12.9221 C.3         1 SU3       0.1158
      7 CAF       -19.2673  -15.5126   16.0821 C.2         1 SU3       0.2070
      8 OAG       -19.1007  -14.9454   17.1530 O.2         1 SU3      -0.3942
      9 CAH       -19.9146  -16.8327   16.1288 C.3         1 SU3       0.1378
     10 NAI       -19.0444  -17.7519   16.8215 N.am        1 SU3      -0.2407
     11 CAJ       -18.5988  -18.9453   16.3539 C.2         1 SU3       0.3218
     12 OAK       -17.9510  -19.7658   17.2272 O.3         1 SU3      -0.2633
     13 CAL       -21.3819  -16.8546   16.7376 C.3         1 SU3       0.0025
     14 OAM       -18.8762  -19.3672   15.0955 O.2         1 SU3      -0.3774
     15 CAO       -15.1934  -14.6041   12.6825 C.2         1 SU3       0.4317
     16 OAP       -15.2108  -13.6424   11.7308 O.2         1 SU3      -0.3166
     17 NAQ       -14.0218  -15.1580   13.0834 N.am        1 SU3      -0.2080
     18 CAR       -22.6279  -10.6276   17.6610 C.3         1 SU3      -0.0516
     19 CAS       -23.2661  -11.2719   18.9051 C.3         1 SU3      -0.0651
     20 CAT       -22.3165  -15.9119   15.9074 C.3         1 SU3      -0.0558
     21 NAV       -19.2223  -11.4255   15.9707 N.am        1 SU3      -0.2737
     22 CAX       -20.1889  -10.4749   16.4432 C.3         1 SU3       0.1374
     23 CAY       -20.6997   -9.4615   15.5161 C.2         1 SU3       0.2444
     24 CAZ       -21.1604  -11.0954   17.4807 C.3         1 SU3      -0.0066
     25 CBA       -20.0471  -10.1452   17.9467 C.3         1 SU3      -0.0152
     26 CBB       -12.7918  -14.8593   12.6129 C.2         1 SU3       0.0383
     27 CBC       -11.8543  -15.6585   13.2625 C.ar        1 SU3      -0.0374
     28 CBD       -12.5476  -16.4620   14.1686 C.ar        1 SU3      -0.0293
     29 CBE       -13.8939  -16.1250   14.0225 C.2         1 SU3       0.0366
     30 CBF       -10.4625  -15.7507   13.1248 C.ar        1 SU3      -0.0689
     31 CBG        -9.7666  -16.6749   13.9324 C.ar        1 SU3      -0.0688
     32 CBH       -10.4648  -17.4877   14.8506 C.ar        1 SU3      -0.0606
     33 CBI       -11.8736  -17.3979   14.9905 C.ar        1 SU3      -0.0432
     34 CBJ       -12.5938  -18.2746   15.9529 C.3         1 SU3      -0.0194
     35 NBK       -20.3242   -9.4656   14.2444 N.am        1 SU3      -0.1552
     36 OBL       -21.4436   -8.5774   15.9233 O.2         1 SU3      -0.3404
     37 SBM       -20.7971   -8.3509   13.0680 S.o2        1 SU3       0.0645
     38 CBN       -22.4444   -7.6492   13.3486 C.3         1 SU3       0.1004
     39 OBO       -19.7019   -7.2058   12.9320 O.2         1 SU3      -0.1503
     40 OBP       -20.8136   -9.1470   11.6914 O.2         1 SU3      -0.1503
     41 CBQ       -23.6278   -7.9950   12.4314 C.3         1 SU3      -0.0268
     42 CBR       -23.5143   -8.6575   13.8082 C.3         1 SU3      -0.0268
     43 CBS       -12.7993  -19.7062   15.3873 C.3         1 SU3      -0.0433
     44 CBT       -13.5794  -20.6627   16.3339 C.3         1 SU3      -0.0507
     45 CBU       -15.1257  -20.4581   16.3293 C.3         1 SU3      -0.0453
     46 CBV       -15.9792  -21.3275   17.3278 C.3         1 SU3      -0.0072
     47 CBW       -17.5020  -21.1168   17.0192 C.3         1 SU3       0.0824
     48 CBX       -15.6609  -22.8518   17.1639 C.3         1 SU3      -0.0574
     49 CBY       -15.7033  -20.9163   18.8105 C.3         1 SU3      -0.0574
     50 CBZ       -21.9663  -18.3085   16.6356 C.3         1 SU3      -0.0558
     51 CCA       -21.4512  -16.4264   18.2425 C.3         1 SU3      -0.0558
     52 CD1       -18.6949  -15.4941   13.6909 C.3         1 SU3       0.0677
     53 OD2       -16.3633  -15.0396   13.2165 O.3         1 SU3      -0.2338
     54 H1        -17.5763  -13.3678   15.5959 H           1 SU3       0.0803
     55 H2        -17.1167  -12.5588   13.4547 H           1 SU3       0.0342
     56 H3        -18.7836  -12.7458   12.8796 H           1 SU3       0.0342
     57 H4        -17.8800  -14.6635   11.8440 H           1 SU3       0.0673
     58 H5        -20.0386  -17.1854   15.1051 H           1 SU3       0.0805
     59 H6        -18.8273  -17.5428   17.7447 H           1 SU3       0.1899
     60 H7        -22.7046   -9.5448   17.7679 H           1 SU3       0.0265
     61 H8        -23.1895  -10.9265   16.7737 H           1 SU3       0.0265
     62 H9        -24.2906  -10.9149   19.0249 H           1 SU3       0.0230
     63 H10       -22.6946  -10.9947   19.7960 H           1 SU3       0.0230
     64 H11       -23.2775  -12.3588   18.8082 H           1 SU3       0.0230
     65 H12       -23.3496  -15.9673   16.2600 H           1 SU3       0.0237
     66 H13       -22.3098  -16.1903   14.8507 H           1 SU3       0.0237
     67 H14       -21.9888  -14.8738   15.9854 H           1 SU3       0.0237
     68 H15       -18.2885  -11.2327   16.1526 H           1 SU3       0.1839
     69 H16       -20.9572  -12.1430   17.7292 H           1 SU3       0.0312
     70 H17       -20.3738   -9.1615   18.2816 H           1 SU3       0.0279
     71 H18       -19.2252  -10.6222   18.4821 H           1 SU3       0.0279
     72 H19       -12.5680  -14.1726   11.8905 H           1 SU3       0.0373
     73 H20       -14.6642  -16.5537   14.5449 H           1 SU3       0.0361
     74 H21        -9.9618  -15.1673   12.4493 H           1 SU3       0.0557
     75 H22        -8.7514  -16.7555   13.8464 H           1 SU3       0.0599
     76 H23        -9.9348  -18.1504   15.4182 H           1 SU3       0.0557
     77 H24       -13.5620  -17.8441   16.2051 H           1 SU3       0.0426
     78 H25       -12.0254  -18.3261   16.8840 H           1 SU3       0.0426
     79 H26       -19.7283  -10.1738   13.9504 H           1 SU3       0.2148
     80 H27       -22.5084   -6.6932   13.8695 H           1 SU3       0.0559
     81 H28       -23.4175   -8.6416   11.5779 H           1 SU3       0.0285
     82 H29       -24.4096   -7.2410   12.3409 H           1 SU3       0.0285
     83 H30       -24.2292   -8.3043   14.5524 H           1 SU3       0.0285
     84 H31       -23.2574   -9.7196   13.7782 H           1 SU3       0.0285
     85 H32       -11.8149  -20.1470   15.2002 H           1 SU3       0.0287
     86 H33       -13.3185  -19.6525   14.4248 H           1 SU3       0.0287
     87 H34       -13.1859  -20.5543   17.3451 H           1 SU3       0.0267
     88 H35       -13.3672  -21.6841   16.0075 H           1 SU3       0.0267
     89 H36       -15.4712  -20.6600   15.3108 H           1 SU3       0.0271
     90 H37       -15.3355  -19.4053   16.5293 H           1 SU3       0.0271
     91 H38       -17.7183  -21.4445   15.9999 H           1 SU3       0.0617
     92 H39       -18.1002  -21.7427   17.6845 H           1 SU3       0.0617
     93 H40       -14.6364  -23.0803   17.4695 H           1 SU3       0.0236
     94 H41       -15.7836  -23.1629   16.1232 H           1 SU3       0.0236
     95 H42       -16.3269  -23.4603   17.7816 H           1 SU3       0.0236
     96 H43       -15.8530  -19.8440   18.9522 H           1 SU3       0.0236
     97 H44       -14.6810  -21.1580   19.1028 H           1 SU3       0.0236
     98 H45       -16.3743  -21.4451   19.4923 H           1 SU3       0.0236
     99 H46       -21.4007  -19.0026   17.2620 H           1 SU3       0.0237
    100 H47       -21.9316  -18.6745   15.6060 H           1 SU3       0.0237
    101 H48       -23.0089  -18.3394   16.9659 H           1 SU3       0.0237
    102 H49       -21.2101  -15.3714   18.3749 H           1 SU3       0.0237
    103 H50       -20.7563  -17.0134   18.8449 H           1 SU3       0.0237
    104 H51       -22.4538  -16.5836   18.6467 H           1 SU3       0.0237
    105 H52       -19.6623  -15.5297   13.1757 H           1 SU3       0.0553
    106 H53       -18.2890  -16.5107   13.7624 H           1 SU3       0.0553
@<TRIPOS>BOND
     1     1     3   2
     2     1     4   1
     3    21     1  am
     4     4     2   1
     5     2     7  am
     6     2    52   1
     7     4     5   1
     8     5     6   1
     9     6    52   1
    10     6    53   1
    11     7     8   2
    12     7     9   1
    13     9    10   1
    14     9    13   1
    15    10    11  am
    16    11    12   1
    17    11    14   2
    18    12    47   1
    19    13    20   1
    20    13    50   1
    21    13    51   1
    22    15    16   2
    23    15    17  am
    24    53    15   1
    25    17    26   1
    26    17    29   1
    27    18    19   1
    28    24    18   1
    29    22    21   1
    30    22    23   1
    31    22    24   1
    32    22    25   1
    33    23    35  am
    34    23    36   2
    35    24    25   1
    36    26    27   2
    37    27    28  ar
    38    27    30  ar
    39    28    29   2
    40    28    33  ar
    41    30    31  ar
    42    31    32  ar
    43    32    33  ar
    44    33    34   1
    45    34    43   1
    46    35    37  am
    47    37    38   1
    48    37    39   2
    49    37    40   2
    50    38    41   1
    51    38    42   1
    52    41    42   1
    53    43    44   1
    54    44    45   1
    55    45    46   1
    56    46    47   1
    57    46    48   1
    58    46    49   1
    59     4    54   1
    60     5    55   1
    61     5    56   1
    62     6    57   1
    63     9    58   1
    64    10    59   1
    65    18    60   1
    66    18    61   1
    67    19    62   1
    68    19    63   1
    69    19    64   1
    70    20    65   1
    71    20    66   1
    72    20    67   1
    73    21    68   1
    74    24    69   1
    75    25    70   1
    76    25    71   1
    77    26    72   1
    78    29    73   1
    79    30    74   1
    80    31    75   1
    81    32    76   1
    82    34    77   1
    83    34    78   1
    84    35    79   1
    85    38    80   1
    86    41    81   1
    87    41    82   1
    88    42    83   1
    89    42    84   1
    90    43    85   1
    91    43    86   1
    92    44    87   1
    93    44    88   1
    94    45    89   1
    95    45    90   1
    96    47    91   1
    97    47    92   1
    98    48    93   1
    99    48    94   1
   100    48    95   1
   101    49    96   1
   102    49    97   1
   103    49    98   1
   104    50    99   1
   105    50   100   1
   106    50   101   1
   107    51   102   1
   108    51   103   1
   109    51   104   1
   110    52   105   1
   111    52   106   1
@<TRIPOS>SUBSTRUCTURE
     1  SU3      1

