@<TRIPOS>MOLECULE
3su3_ligand_042
   106   111
SMALL
GAST_HUCK
****
This file was generated by PARSER (from files_GN.cpp)

@<TRIPOS>ATOM
      1 C          -9.4350   -5.2480    9.1573 C.2         1 SU3       0.2013
      2 N         -10.7080   -5.3520    7.0535 N.am        1 SU3      -0.2469
      3 O          -8.4565   -5.6096    8.5170 O.2         1 SU3      -0.3947
      4 CA        -10.7317   -5.1233    8.4882 C.3         1 SU3       0.1363
      5 CB        -11.7578   -6.1457    9.0412 C.3         1 SU3       0.0206
      6 CG        -12.6163   -6.5151    7.8214 C.3         1 SU3       0.1158
      7 CAF        -9.9701   -4.6237    6.1918 C.2         1 SU3       0.2070
      8 OAG        -9.4891   -3.5726    6.6028 O.2         1 SU3      -0.3942
      9 CAH        -9.6806   -4.9693    4.7890 C.3         1 SU3       0.1378
     10 NAI       -10.2861   -3.9621    3.9579 N.am        1 SU3      -0.2407
     11 CAJ       -11.1496   -4.1810    2.9396 C.2         1 SU3       0.3218
     12 OAK       -11.4321   -3.1313    2.1245 O.3         1 SU3      -0.2633
     13 CAL        -8.1446   -5.1704    4.4296 C.3         1 SU3       0.0025
     14 OAM       -11.6245   -5.4188    2.6579 O.2         1 SU3      -0.3774
     15 CAO       -14.8662   -5.4439    8.2677 C.2         1 SU3       0.4317
     16 OAP       -15.1191   -6.2414    9.3339 O.2         1 SU3      -0.3166
     17 NAQ       -15.7857   -4.5342    7.8512 N.am        1 SU3      -0.2080
     18 CAR        -7.3111   -5.5723   13.7608 C.3         1 SU3      -0.0516
     19 CAS        -7.9299   -5.9682   15.1152 C.3         1 SU3      -0.0651
     20 CAT        -7.2528   -3.9241    4.7584 C.3         1 SU3      -0.0558
     21 NAV        -9.3090   -5.0136   10.4566 N.am        1 SU3      -0.2737
     22 CAX        -8.0940   -5.2004   11.1948 C.3         1 SU3       0.1374
     23 CAY        -7.0707   -4.1818   11.0286 C.2         1 SU3       0.2444
     24 CAZ        -8.2593   -5.8936   12.5716 C.3         1 SU3      -0.0066
     25 CBA        -7.6625   -6.6719   11.3878 C.3         1 SU3      -0.0152
     26 CBB       -16.9979   -4.3055    8.4088 C.2         1 SU3       0.0383
     27 CBC       -17.6524   -3.3193    7.6786 C.ar        1 SU3      -0.0374
     28 CBD       -16.7991   -2.9303    6.6475 C.ar        1 SU3      -0.0293
     29 CBE       -15.6516   -3.7100    6.7857 C.2         1 SU3       0.0366
     30 CBF       -18.9262   -2.7438    7.8286 C.ar        1 SU3      -0.0689
     31 CBG       -19.3321   -1.7608    6.9045 C.ar        1 SU3      -0.0688
     32 CBH       -18.4705   -1.3635    5.8593 C.ar        1 SU3      -0.0606
     33 CBI       -17.1800   -1.9358    5.7131 C.ar        1 SU3      -0.0432
     34 CBJ       -16.2884   -1.4975    4.6057 C.3         1 SU3      -0.0194
     35 NBK        -7.3120   -2.9830   11.5333 N.am        1 SU3      -0.1552
     36 OBL        -6.0984   -4.4193   10.3232 O.2         1 SU3      -0.3404
     37 SBM        -6.3807   -1.5857   11.3459 S.o2        1 SU3       0.0645
     38 CBN        -7.3496   -0.1812   10.7407 C.3         1 SU3       0.1004
     39 OBO        -5.6466   -1.2395   12.7134 O.2         1 SU3      -0.1503
     40 OBP        -5.2281   -1.7986   10.2700 O.2         1 SU3      -0.1503
     41 CBQ        -8.7407    0.0176   11.3629 C.3         1 SU3      -0.0268
     42 CBR        -7.6159    1.0064   11.6817 C.3         1 SU3      -0.0268
     43 CBS       -16.6879   -2.1403    3.2499 C.3         1 SU3      -0.0433
     44 CBT       -15.7615   -1.7518    2.0636 C.3         1 SU3      -0.0507
     45 CBU       -14.4060   -2.5222    2.0213 C.3         1 SU3      -0.0453
     46 CBV       -13.3814   -2.1201    0.8948 C.3         1 SU3      -0.0072
     47 CBW       -12.1884   -3.1378    0.9012 C.3         1 SU3       0.0824
     48 CBX       -14.0431   -2.1778   -0.5220 C.3         1 SU3      -0.0574
     49 CBY       -12.8191   -0.6808    1.1352 C.3         1 SU3      -0.0574
     50 CBZ        -7.5701   -6.4098    5.1935 C.3         1 SU3      -0.0558
     51 CCA        -7.9893   -5.4687    2.8978 C.3         1 SU3      -0.0558
     52 CD1       -11.6041   -6.4034    6.6674 C.3         1 SU3       0.0677
     53 OD2       -13.6966   -5.5934    7.5864 O.3         1 SU3      -0.2338
     54 H1        -11.1217   -4.1171    8.6638 H           1 SU3       0.0803
     55 H2        -12.3562   -5.7227    9.8514 H           1 SU3       0.0342
     56 H3        -11.2650   -7.0523    9.4106 H           1 SU3       0.0342
     57 H4        -13.0119   -7.5331    7.8926 H           1 SU3       0.0673
     58 H5        -10.1461   -5.9315    4.5702 H           1 SU3       0.0805
     59 H6         -9.9729   -3.0513    4.0752 H           1 SU3       0.1899
     60 H7         -6.3569   -6.0918   13.6471 H           1 SU3       0.0265
     61 H8         -7.1144   -4.5011   13.7851 H           1 SU3       0.0265
     62 H9         -7.2592   -5.6866   15.9286 H           1 SU3       0.0230
     63 H10        -8.0971   -7.0475   15.1519 H           1 SU3       0.0230
     64 H11        -8.8830   -5.4528   15.2542 H           1 SU3       0.0230
     65 H12        -6.2465   -4.0407    4.3506 H           1 SU3       0.0237
     66 H13        -7.1423   -3.7848    5.8348 H           1 SU3       0.0237
     67 H14        -7.6857   -3.0152    4.3362 H           1 SU3       0.0237
     68 H15       -10.0906   -4.7060   10.9444 H           1 SU3       0.1839
     69 H16        -9.2840   -6.1940   12.8062 H           1 SU3       0.0312
     70 H17        -6.5884   -6.8696   11.4140 H           1 SU3       0.0279
     71 H18        -8.3191   -7.4332   10.9602 H           1 SU3       0.0279
     72 H19       -17.3897   -4.7821    9.2246 H           1 SU3       0.0373
     73 H20       -14.8408   -3.6721    6.1642 H           1 SU3       0.0361
     74 H21       -19.5475   -3.0357    8.5859 H           1 SU3       0.0557
     75 H22       -20.2567   -1.3322    6.9916 H           1 SU3       0.0599
     76 H23       -18.7906   -0.6461    5.2036 H           1 SU3       0.0557
     77 H24       -15.2523   -1.7471    4.8348 H           1 SU3       0.0426
     78 H25       -16.3333   -0.4082    4.5209 H           1 SU3       0.0426
     79 H26        -8.1254   -2.8888   12.0540 H           1 SU3       0.2148
     80 H27        -7.2973    0.0666    9.6785 H           1 SU3       0.0559
     81 H28        -9.0198   -0.6361   12.1896 H           1 SU3       0.0285
     82 H29        -9.5190    0.3946   10.6952 H           1 SU3       0.0285
     83 H30        -7.7331    1.9873   11.2155 H           1 SU3       0.0285
     84 H31        -7.2498    0.9473   12.7082 H           1 SU3       0.0285
     85 H32       -17.7035   -1.8157    3.0041 H           1 SU3       0.0287
     86 H33       -16.7077   -3.2291    3.3502 H           1 SU3       0.0287
     87 H34       -15.5850   -0.6751    2.0927 H           1 SU3       0.0267
     88 H35       -16.3089   -1.9705    1.1435 H           1 SU3       0.0267
     89 H36       -14.6444   -3.5844    1.9135 H           1 SU3       0.0271
     90 H37       -13.9129   -2.4069    2.9889 H           1 SU3       0.0271
     91 H38       -12.5604   -4.1422    0.6788 H           1 SU3       0.0617
     92 H39       -11.4819   -2.8814    0.1079 H           1 SU3       0.0617
     93 H40       -14.8130   -1.4123   -0.6315 H           1 SU3       0.0236
     94 H41       -14.5036   -3.1537   -0.6928 H           1 SU3       0.0236
     95 H42       -13.3023   -2.0098   -1.3075 H           1 SU3       0.0236
     96 H43       -12.3901   -0.5926    2.1355 H           1 SU3       0.0236
     97 H44       -13.6026    0.0716    1.0354 H           1 SU3       0.0236
     98 H45       -12.0382   -0.4430    0.4092 H           1 SU3       0.0236
     99 H46        -8.1435   -7.3109    4.9630 H           1 SU3       0.0237
    100 H47        -7.6058   -6.2554    6.2679 H           1 SU3       0.0237
    101 H48        -6.5271   -6.5930    4.9230 H           1 SU3       0.0237
    102 H49        -8.2778   -4.6022    2.2988 H           1 SU3       0.0237
    103 H50        -8.6142   -6.3127    2.5995 H           1 SU3       0.0237
    104 H51        -6.9543   -5.7112    2.6444 H           1 SU3       0.0237
    105 H52       -11.0456   -7.3359    6.5489 H           1 SU3       0.0553
    106 H53       -12.1416   -6.1855    5.7396 H           1 SU3       0.0553
@<TRIPOS>BOND
     1     1     3   2
     2     1     4   1
     3    21     1  am
     4     4     2   1
     5     2     7  am
     6     2    52   1
     7     4     5   1
     8     5     6   1
     9     6    52   1
    10     6    53   1
    11     7     8   2
    12     7     9   1
    13     9    10   1
    14     9    13   1
    15    10    11  am
    16    11    12   1
    17    11    14   2
    18    12    47   1
    19    13    20   1
    20    13    50   1
    21    13    51   1
    22    15    16   2
    23    15    17  am
    24    53    15   1
    25    17    26   1
    26    17    29   1
    27    18    19   1
    28    24    18   1
    29    22    21   1
    30    22    23   1
    31    22    24   1
    32    22    25   1
    33    23    35  am
    34    23    36   2
    35    24    25   1
    36    26    27   2
    37    27    28  ar
    38    27    30  ar
    39    28    29   2
    40    28    33  ar
    41    30    31  ar
    42    31    32  ar
    43    32    33  ar
    44    33    34   1
    45    34    43   1
    46    35    37  am
    47    37    38   1
    48    37    39   2
    49    37    40   2
    50    38    41   1
    51    38    42   1
    52    41    42   1
    53    43    44   1
    54    44    45   1
    55    45    46   1
    56    46    47   1
    57    46    48   1
    58    46    49   1
    59     4    54   1
    60     5    55   1
    61     5    56   1
    62     6    57   1
    63     9    58   1
    64    10    59   1
    65    18    60   1
    66    18    61   1
    67    19    62   1
    68    19    63   1
    69    19    64   1
    70    20    65   1
    71    20    66   1
    72    20    67   1
    73    21    68   1
    74    24    69   1
    75    25    70   1
    76    25    71   1
    77    26    72   1
    78    29    73   1
    79    30    74   1
    80    31    75   1
    81    32    76   1
    82    34    77   1
    83    34    78   1
    84    35    79   1
    85    38    80   1
    86    41    81   1
    87    41    82   1
    88    42    83   1
    89    42    84   1
    90    43    85   1
    91    43    86   1
    92    44    87   1
    93    44    88   1
    94    45    89   1
    95    45    90   1
    96    47    91   1
    97    47    92   1
    98    48    93   1
    99    48    94   1
   100    48    95   1
   101    49    96   1
   102    49    97   1
   103    49    98   1
   104    50    99   1
   105    50   100   1
   106    50   101   1
   107    51   102   1
   108    51   103   1
   109    51   104   1
   110    52   105   1
   111    52   106   1
@<TRIPOS>SUBSTRUCTURE
     1  SU3      1

