@<TRIPOS>MOLECULE
3su3_ligand_020
   106   111
SMALL
GAST_HUCK
****
This file was generated by PARSER (from files_GN.cpp)

@<TRIPOS>ATOM
      1 C         -12.1783   -6.4327    9.3821 C.2         1 SU3       0.2013
      2 N         -10.0418   -5.2772    9.1534 N.am        1 SU3      -0.2469
      3 O         -11.6344   -7.5020    9.6312 O.2         1 SU3      -0.3947
      4 CA        -11.4159   -5.3797    8.7084 C.3         1 SU3       0.1363
      5 CB        -11.3483   -5.6300    7.1794 C.3         1 SU3       0.0206
      6 CG         -9.9254   -5.1966    6.7878 C.3         1 SU3       0.1158
      7 CAF        -9.6883   -5.0445   10.4316 C.2         1 SU3       0.2070
      8 OAG       -10.5604   -4.6847   11.2163 O.2         1 SU3      -0.3942
      9 CAH        -8.3382   -5.2014   10.9915 C.3         1 SU3       0.1378
     10 NAI        -7.8656   -3.8881   11.3317 N.am        1 SU3      -0.2407
     11 CAJ        -6.7037   -3.3280   10.9367 C.2         1 SU3       0.3218
     12 OAK        -6.3710   -2.1331   11.4914 O.3         1 SU3      -0.2633
     13 CAL        -8.1890   -6.2146   12.2073 C.3         1 SU3       0.0025
     14 OAM        -5.8582   -3.9688   10.0939 O.2         1 SU3      -0.3774
     15 CAO       -10.2845   -3.1744    5.3363 C.2         1 SU3       0.4317
     16 OAP       -10.9080   -3.8976    4.3758 O.2         1 SU3      -0.3166
     17 NAQ       -10.0944   -1.8393    5.1787 N.am        1 SU3      -0.2080
     18 CAR       -16.7172   -8.2670   10.2538 C.3         1 SU3      -0.0516
     19 CAS       -17.2380   -9.5449    9.5594 C.3         1 SU3      -0.0651
     20 CAT        -8.6621   -5.6204   13.5758 C.3         1 SU3      -0.0558
     21 NAV       -13.4521   -6.2277    9.6921 N.am        1 SU3      -0.2737
     22 CAX       -14.2486   -7.0901   10.5108 C.3         1 SU3       0.1374
     23 CAY       -14.6095   -6.5347   11.7951 C.2         1 SU3       0.2444
     24 CAZ       -15.3189   -7.8780    9.7109 C.3         1 SU3      -0.0066
     25 CBA       -14.1364   -8.6258   10.3450 C.3         1 SU3      -0.0152
     26 CBB       -10.4914   -1.0880    4.1270 C.2         1 SU3       0.0383
     27 CBC       -10.1032    0.2306    4.3435 C.ar        1 SU3      -0.0374
     28 CBD        -9.4603    0.2772    5.5776 C.ar        1 SU3      -0.0293
     29 CBE        -9.4591   -1.0302    6.0561 C.2         1 SU3       0.0366
     30 CBF       -10.2555    1.3849    3.5597 C.ar        1 SU3      -0.0689
     31 CBG        -9.7378    2.6009    4.0500 C.ar        1 SU3      -0.0688
     32 CBH        -9.0950    2.6520    5.3060 C.ar        1 SU3      -0.0606
     33 CBI        -8.9533    1.4880    6.1054 C.ar        1 SU3      -0.0432
     34 CBJ        -8.3010    1.5610    7.4395 C.3         1 SU3      -0.0194
     35 NBK       -13.9096   -6.8764   12.8666 N.am        1 SU3      -0.1552
     36 OBL       -15.4577   -5.6443   11.8244 O.2         1 SU3      -0.3404
     37 SBM       -14.1189   -6.2063   14.4001 S.o2        1 SU3       0.0645
     38 CBN       -12.5981   -6.3450   15.3691 C.3         1 SU3       0.1004
     39 OBO       -14.3712   -4.6395   14.2565 O.2         1 SU3      -0.1503
     40 OBP       -15.3305   -6.9061   15.1533 O.2         1 SU3      -0.1503
     41 CBQ       -12.7154   -6.6971   16.8598 C.3         1 SU3      -0.0268
     42 CBR       -12.1829   -7.7359   15.8637 C.3         1 SU3      -0.0268
     43 CBS        -6.7549    1.4881    7.3346 C.3         1 SU3      -0.0433
     44 CBT        -6.0250    1.4933    8.7075 C.3         1 SU3      -0.0507
     45 CBU        -5.9715    0.1111    9.4282 C.3         1 SU3      -0.0453
     46 CBV        -5.3510    0.0881   10.8760 C.3         1 SU3      -0.0072
     47 CBW        -5.1495   -1.3966   11.3385 C.3         1 SU3       0.0824
     48 CBX        -3.9455    0.7782   10.9048 C.3         1 SU3      -0.0574
     49 CBY        -6.2922    0.8054   11.8976 C.3         1 SU3      -0.0574
     50 CBZ        -8.9973   -7.5296   11.9432 C.3         1 SU3      -0.0558
     51 CCA        -6.6821   -6.6197   12.3703 C.3         1 SU3      -0.0558
     52 CD1        -9.1201   -5.4647    8.0719 C.3         1 SU3       0.0677
     53 OD2        -9.8303   -3.8001    6.4573 O.3         1 SU3      -0.2338
     54 H1        -11.8931   -4.4082    8.8825 H           1 SU3       0.0803
     55 H2        -12.1139   -5.0640    6.6440 H           1 SU3       0.0342
     56 H3        -11.4697   -6.6911    6.9339 H           1 SU3       0.0342
     57 H4         -9.5326   -5.7953    5.9571 H           1 SU3       0.0673
     58 H5         -7.7049   -5.6176   10.2066 H           1 SU3       0.0805
     59 H6         -8.4044   -3.3806   11.9588 H           1 SU3       0.1899
     60 H7        -16.6948   -8.4358   11.3342 H           1 SU3       0.0265
     61 H8        -17.4079   -7.4468   10.0500 H           1 SU3       0.0265
     62 H9        -18.2367   -9.7886    9.9279 H           1 SU3       0.0230
     63 H10       -16.5736  -10.3883    9.7673 H           1 SU3       0.0230
     64 H11       -17.2918   -9.3964    8.4781 H           1 SU3       0.0230
     65 H12        -8.5265   -6.3422   14.3862 H           1 SU3       0.0237
     66 H13        -9.7172   -5.3555   13.5419 H           1 SU3       0.0237
     67 H14        -8.0914   -4.7266   13.8281 H           1 SU3       0.0237
     68 H15       -13.8446   -5.3766    9.4329 H           1 SU3       0.1839
     69 H16       -15.2328   -7.7942    8.6211 H           1 SU3       0.0312
     70 H17       -14.3477   -9.2194   11.2407 H           1 SU3       0.0279
     71 H18       -13.4103   -9.0064    9.6214 H           1 SU3       0.0279
     72 H19       -10.9893   -1.4191    3.2982 H           1 SU3       0.0373
     73 H20        -9.0199   -1.3262    6.9275 H           1 SU3       0.0361
     74 H21       -10.7254    1.3444    2.6535 H           1 SU3       0.0557
     75 H22        -9.8308    3.4535    3.4907 H           1 SU3       0.0599
     76 H23        -8.7339    3.5493    5.6390 H           1 SU3       0.0557
     77 H24        -8.6613    0.7565    8.0795 H           1 SU3       0.0426
     78 H25        -8.5855    2.4946    7.9321 H           1 SU3       0.0426
     79 H26       -13.2094   -7.5454   12.7582 H           1 SU3       0.2148
     80 H27       -11.7748   -5.6762   15.1275 H           1 SU3       0.0559
     81 H28       -13.7098   -6.9087   17.2570 H           1 SU3       0.0285
     82 H29       -11.9586   -6.2672   17.5206 H           1 SU3       0.0285
     83 H30       -11.1095   -7.9264   15.9284 H           1 SU3       0.0285
     84 H31       -12.8607   -8.5658   15.6600 H           1 SU3       0.0285
     85 H32        -6.4141    2.3594    6.7667 H           1 SU3       0.0287
     86 H33        -6.4608    0.5967    6.7731 H           1 SU3       0.0287
     87 H34        -6.4940    2.2392    9.3527 H           1 SU3       0.0267
     88 H35        -4.9984    1.8209    8.5224 H           1 SU3       0.0267
     89 H36        -5.3928   -0.5612    8.7886 H           1 SU3       0.0271
     90 H37        -6.9831   -0.2973    9.4794 H           1 SU3       0.0271
     91 H38        -4.4735   -1.9085   10.6495 H           1 SU3       0.0617
     92 H39        -4.6712   -1.4141   12.3208 H           1 SU3       0.0617
     93 H40        -4.0253    1.8472   10.7008 H           1 SU3       0.0236
     94 H41        -3.2828    0.3341   10.1578 H           1 SU3       0.0236
     95 H42        -3.4730    0.6693   11.8845 H           1 SU3       0.0236
     96 H43        -7.2989    0.3824   11.8635 H           1 SU3       0.0236
     97 H44        -6.3653    1.8733   11.6873 H           1 SU3       0.0236
     98 H45        -5.9136    0.6934   12.9161 H           1 SU3       0.0236
     99 H46        -8.7574   -7.9424   10.9611 H           1 SU3       0.0237
    100 H47       -10.0695   -7.3380   11.9848 H           1 SU3       0.0237
    101 H48        -8.7736   -8.2893   12.6964 H           1 SU3       0.0237
    102 H49        -6.0642   -5.7454   12.5775 H           1 SU3       0.0237
    103 H50        -6.3031   -7.0938   11.4617 H           1 SU3       0.0237
    104 H51        -6.5438   -7.3239   13.1950 H           1 SU3       0.0237
    105 H52        -8.7415   -6.4925    8.0817 H           1 SU3       0.0553
    106 H53        -8.2762   -4.7702    8.1207 H           1 SU3       0.0553
@<TRIPOS>BOND
     1     1     3   2
     2     1     4   1
     3    21     1  am
     4     4     2   1
     5     2     7  am
     6     2    52   1
     7     4     5   1
     8     5     6   1
     9     6    52   1
    10     6    53   1
    11     7     8   2
    12     7     9   1
    13     9    10   1
    14     9    13   1
    15    10    11  am
    16    11    12   1
    17    11    14   2
    18    12    47   1
    19    13    20   1
    20    13    50   1
    21    13    51   1
    22    15    16   2
    23    15    17  am
    24    53    15   1
    25    17    26   1
    26    17    29   1
    27    18    19   1
    28    24    18   1
    29    22    21   1
    30    22    23   1
    31    22    24   1
    32    22    25   1
    33    23    35  am
    34    23    36   2
    35    24    25   1
    36    26    27   2
    37    27    28  ar
    38    27    30  ar
    39    28    29   2
    40    28    33  ar
    41    30    31  ar
    42    31    32  ar
    43    32    33  ar
    44    33    34   1
    45    34    43   1
    46    35    37  am
    47    37    38   1
    48    37    39   2
    49    37    40   2
    50    38    41   1
    51    38    42   1
    52    41    42   1
    53    43    44   1
    54    44    45   1
    55    45    46   1
    56    46    47   1
    57    46    48   1
    58    46    49   1
    59     4    54   1
    60     5    55   1
    61     5    56   1
    62     6    57   1
    63     9    58   1
    64    10    59   1
    65    18    60   1
    66    18    61   1
    67    19    62   1
    68    19    63   1
    69    19    64   1
    70    20    65   1
    71    20    66   1
    72    20    67   1
    73    21    68   1
    74    24    69   1
    75    25    70   1
    76    25    71   1
    77    26    72   1
    78    29    73   1
    79    30    74   1
    80    31    75   1
    81    32    76   1
    82    34    77   1
    83    34    78   1
    84    35    79   1
    85    38    80   1
    86    41    81   1
    87    41    82   1
    88    42    83   1
    89    42    84   1
    90    43    85   1
    91    43    86   1
    92    44    87   1
    93    44    88   1
    94    45    89   1
    95    45    90   1
    96    47    91   1
    97    47    92   1
    98    48    93   1
    99    48    94   1
   100    48    95   1
   101    49    96   1
   102    49    97   1
   103    49    98   1
   104    50    99   1
   105    50   100   1
   106    50   101   1
   107    51   102   1
   108    51   103   1
   109    51   104   1
   110    52   105   1
   111    52   106   1
@<TRIPOS>SUBSTRUCTURE
     1  SU3      1

