@<TRIPOS>MOLECULE
3su3_ligand_008
   106   111
SMALL
GAST_HUCK
****
This file was generated by PARSER (from files_GN.cpp)

@<TRIPOS>ATOM
      1 C         -14.4682   -8.0189   14.7686 C.2         1 SU3       0.2013
      2 N         -16.5822   -8.9861   13.9155 N.am        1 SU3      -0.2469
      3 O         -14.5468   -7.1316   13.9269 O.2         1 SU3      -0.3947
      4 CA        -15.3628   -9.1717   14.6840 C.3         1 SU3       0.1363
      5 CB        -14.6505  -10.3823   14.0337 C.3         1 SU3       0.0206
      6 CG        -15.8057  -11.1554   13.3796 C.3         1 SU3       0.1158
      7 CAF       -17.4599   -7.9866   14.1406 C.2         1 SU3       0.2070
      8 OAG       -17.2925   -7.2989   15.1424 O.2         1 SU3      -0.3942
      9 CAH       -18.6214   -7.6336   13.3107 C.3         1 SU3       0.1378
     10 NAI       -19.8006   -7.7606   14.1320 N.am        1 SU3      -0.2407
     11 CAJ       -20.9200   -8.4595   13.8314 C.2         1 SU3       0.3218
     12 OAK       -21.9830   -8.3677   14.6771 O.3         1 SU3      -0.2633
     13 CAL       -18.5296   -6.2144   12.6065 C.3         1 SU3       0.0025
     14 OAM       -21.0193   -9.1710   12.6812 O.2         1 SU3      -0.3774
     15 CAO       -16.1074  -13.1481   14.9077 C.2         1 SU3       0.4317
     16 OAP       -14.9218  -13.7055   14.5595 O.2         1 SU3      -0.3166
     17 NAQ       -16.9136  -13.7382   15.8256 N.am        1 SU3      -0.2080
     18 CAR       -13.1912   -4.0682   16.1899 C.3         1 SU3      -0.0516
     19 CAS       -14.1552   -3.4735   15.1349 C.3         1 SU3      -0.0651
     20 CAT       -19.8439   -5.9302   11.8038 C.3         1 SU3      -0.0558
     21 NAV       -13.6110   -7.9218   15.7766 N.am        1 SU3      -0.2737
     22 CAX       -12.7922   -6.7741   16.0339 C.3         1 SU3       0.1374
     23 CAY       -11.5696   -6.6603   15.2629 C.2         1 SU3       0.2444
     24 CAZ       -13.5841   -5.5312   16.5230 C.3         1 SU3      -0.0066
     25 CBA       -12.7016   -6.3119   17.5036 C.3         1 SU3      -0.0152
     26 CBB       -16.6702  -14.8951   16.4792 C.2         1 SU3       0.0383
     27 CBC       -17.7319  -15.1541   17.3407 C.ar        1 SU3      -0.0374
     28 CBD       -18.6447  -14.1084   17.2050 C.ar        1 SU3      -0.0293
     29 CBE       -18.1047  -13.2533   16.2476 C.2         1 SU3       0.0366
     30 CBF       -17.9683  -16.2180   18.2264 C.ar        1 SU3      -0.0689
     31 CBG       -19.1590  -16.2106   18.9788 C.ar        1 SU3      -0.0688
     32 CBH       -20.0836  -15.1534   18.8456 C.ar        1 SU3      -0.0606
     33 CBI       -19.8418  -14.0736   17.9594 C.ar        1 SU3      -0.0432
     34 CBJ       -20.8252  -12.9612   17.8408 C.3         1 SU3      -0.0194
     35 NBK       -11.5958   -6.0561   14.0894 N.am        1 SU3      -0.1552
     36 OBL       -10.5679   -7.1992   15.7116 O.2         1 SU3      -0.3404
     37 SBM       -10.3248   -5.9343   12.9863 S.o2        1 SU3       0.0645
     38 CBN        -8.6622   -6.3677   13.5635 C.3         1 SU3       0.1004
     39 OBO       -10.6605   -6.9030   11.7697 O.2         1 SU3      -0.1503
     40 OBP       -10.3397   -4.4479   12.4277 O.2         1 SU3      -0.1503
     41 CBQ        -7.5076   -5.3744   13.3641 C.3         1 SU3      -0.0268
     42 CBR        -8.0882   -5.6037   14.7671 C.3         1 SU3      -0.0268
     43 CBS       -22.0237  -13.3452   16.9335 C.3         1 SU3      -0.0433
     44 CBT       -23.0967  -12.2300   16.7947 C.3         1 SU3      -0.0507
     45 CBU       -22.7288  -11.0895   15.7966 C.3         1 SU3      -0.0453
     46 CBV       -23.7210   -9.8704   15.7048 C.3         1 SU3      -0.0072
     47 CBW       -23.2915   -8.9480   14.5134 C.3         1 SU3       0.0824
     48 CBX       -25.1869  -10.3542   15.4380 C.3         1 SU3      -0.0574
     49 CBY       -23.7031   -9.0295   17.0233 C.3         1 SU3      -0.0574
     50 CBZ       -18.3215   -5.0244   13.6046 C.3         1 SU3      -0.0558
     51 CCA       -17.3473   -6.2059   11.5761 C.3         1 SU3      -0.0558
     52 CD1       -16.7500  -10.0209   12.9364 C.3         1 SU3       0.0677
     53 OD2       -16.4965  -11.9796   14.3299 O.3         1 SU3      -0.2338
     54 H1        -15.6725   -9.4478   15.6957 H           1 SU3       0.0803
     55 H2        -14.1167  -10.9836   14.7737 H           1 SU3       0.0342
     56 H3        -13.9457  -10.0691   13.2569 H           1 SU3       0.0342
     57 H4        -15.4749  -11.7555   12.5256 H           1 SU3       0.0673
     58 H5        -18.6946   -8.3479   12.4923 H           1 SU3       0.0805
     59 H6        -19.8045   -7.2822   14.9750 H           1 SU3       0.1899
     60 H7        -13.2659   -3.4757   17.1031 H           1 SU3       0.0265
     61 H8        -12.1649   -3.9954   15.8254 H           1 SU3       0.0265
     62 H9        -13.8707   -2.4447   14.9087 H           1 SU3       0.0230
     63 H10       -15.1813   -3.4691   15.5144 H           1 SU3       0.0230
     64 H11       -14.1220   -4.0553   14.2124 H           1 SU3       0.0230
     65 H12       -19.7679   -5.0035   11.2289 H           1 SU3       0.0237
     66 H13       -20.6998   -5.8295   12.4769 H           1 SU3       0.0237
     67 H14       -20.0561   -6.7427   11.1032 H           1 SU3       0.0237
     68 H15       -13.5503   -8.6597   16.4034 H           1 SU3       0.1839
     69 H16       -14.6418   -5.6980   16.7425 H           1 SU3       0.0312
     70 H17       -11.7820   -5.8091   17.8220 H           1 SU3       0.0279
     71 H18       -13.2545   -6.8986   18.2422 H           1 SU3       0.0279
     72 H19       -15.8494  -15.4930   16.3709 H           1 SU3       0.0373
     73 H20       -18.5465  -12.3905   15.9172 H           1 SU3       0.0361
     74 H21       -17.2938  -16.9805   18.3199 H           1 SU3       0.0557
     75 H22       -19.3519  -16.9796   19.6286 H           1 SU3       0.0599
     76 H23       -20.9395  -15.1743   19.4079 H           1 SU3       0.0557
     77 H24       -20.3425  -12.0701   17.4433 H           1 SU3       0.0426
     78 H25       -21.1892  -12.7010   18.8374 H           1 SU3       0.0426
     79 H26       -12.4403   -5.6608   13.8201 H           1 SU3       0.2148
     80 H27        -8.3847   -7.4234   13.5360 H           1 SU3       0.0559
     81 H28        -7.7448   -4.4070   12.9153 H           1 SU3       0.0285
     82 H29        -6.5216   -5.8176   13.1976 H           1 SU3       0.0285
     83 H30        -7.4623   -6.1799   15.4441 H           1 SU3       0.0285
     84 H31        -8.6931   -4.7915   15.1695 H           1 SU3       0.0285
     85 H32       -22.5115  -14.2268   17.3623 H           1 SU3       0.0287
     86 H33       -21.6608  -13.6240   15.9388 H           1 SU3       0.0287
     87 H34       -23.3017  -11.8158   17.7830 H           1 SU3       0.0267
     88 H35       -24.0142  -12.7087   16.4426 H           1 SU3       0.0267
     89 H36       -22.6419  -11.5456   14.8063 H           1 SU3       0.0271
     90 H37       -21.7391  -10.7078   16.0551 H           1 SU3       0.0271
     91 H38       -23.3541   -9.5084   13.5768 H           1 SU3       0.0617
     92 H39       -23.9882   -8.1128   14.4244 H           1 SU3       0.0617
     93 H40       -25.5786  -10.9187   16.2869 H           1 SU3       0.0236
     94 H41       -25.2272  -10.9952   14.5542 H           1 SU3       0.0236
     95 H42       -25.8569   -9.5061   15.2751 H           1 SU3       0.0236
     96 H43       -22.6847   -8.7275   17.2749 H           1 SU3       0.0236
     97 H44       -24.1036   -9.5984   17.8634 H           1 SU3       0.0236
     98 H45       -24.3087   -8.1257   16.9171 H           1 SU3       0.0236
     99 H46       -17.3304   -5.0470   14.0595 H           1 SU3       0.0237
    100 H47       -19.0694   -5.0495   14.4008 H           1 SU3       0.0237
    101 H48       -18.4118   -4.0677   13.0898 H           1 SU3       0.0237
    102 H49       -17.5010   -6.9646   10.8034 H           1 SU3       0.0237
    103 H50       -16.3960   -6.4154   12.0677 H           1 SU3       0.0237
    104 H51       -17.2593   -5.2344   11.0817 H           1 SU3       0.0237
    105 H52       -16.4720   -9.6465   11.9488 H           1 SU3       0.0553
    106 H53       -17.7741  -10.4048   12.9037 H           1 SU3       0.0553
@<TRIPOS>BOND
     1     1     3   2
     2     1     4   1
     3    21     1  am
     4     4     2   1
     5     2     7  am
     6     2    52   1
     7     4     5   1
     8     5     6   1
     9     6    52   1
    10     6    53   1
    11     7     8   2
    12     7     9   1
    13     9    10   1
    14     9    13   1
    15    10    11  am
    16    11    12   1
    17    11    14   2
    18    12    47   1
    19    13    20   1
    20    13    50   1
    21    13    51   1
    22    15    16   2
    23    15    17  am
    24    53    15   1
    25    17    26   1
    26    17    29   1
    27    18    19   1
    28    24    18   1
    29    22    21   1
    30    22    23   1
    31    22    24   1
    32    22    25   1
    33    23    35  am
    34    23    36   2
    35    24    25   1
    36    26    27   2
    37    27    28  ar
    38    27    30  ar
    39    28    29   2
    40    28    33  ar
    41    30    31  ar
    42    31    32  ar
    43    32    33  ar
    44    33    34   1
    45    34    43   1
    46    35    37  am
    47    37    38   1
    48    37    39   2
    49    37    40   2
    50    38    41   1
    51    38    42   1
    52    41    42   1
    53    43    44   1
    54    44    45   1
    55    45    46   1
    56    46    47   1
    57    46    48   1
    58    46    49   1
    59     4    54   1
    60     5    55   1
    61     5    56   1
    62     6    57   1
    63     9    58   1
    64    10    59   1
    65    18    60   1
    66    18    61   1
    67    19    62   1
    68    19    63   1
    69    19    64   1
    70    20    65   1
    71    20    66   1
    72    20    67   1
    73    21    68   1
    74    24    69   1
    75    25    70   1
    76    25    71   1
    77    26    72   1
    78    29    73   1
    79    30    74   1
    80    31    75   1
    81    32    76   1
    82    34    77   1
    83    34    78   1
    84    35    79   1
    85    38    80   1
    86    41    81   1
    87    41    82   1
    88    42    83   1
    89    42    84   1
    90    43    85   1
    91    43    86   1
    92    44    87   1
    93    44    88   1
    94    45    89   1
    95    45    90   1
    96    47    91   1
    97    47    92   1
    98    48    93   1
    99    48    94   1
   100    48    95   1
   101    49    96   1
   102    49    97   1
   103    49    98   1
   104    50    99   1
   105    50   100   1
   106    50   101   1
   107    51   102   1
   108    51   103   1
   109    51   104   1
   110    52   105   1
   111    52   106   1
@<TRIPOS>SUBSTRUCTURE
     1  SU3      1

