@<TRIPOS>MOLECULE
3su3_ligand_094
   106   111
SMALL
GAST_HUCK
****
This file was generated by PARSER (from files_GN.cpp)

@<TRIPOS>ATOM
      1 C         -18.4261   -5.6693    7.4929 C.2         1 SU3       0.2013
      2 N         -16.1638   -4.9044    7.0508 N.am        1 SU3      -0.2469
      3 O         -18.9175   -4.8624    6.7103 O.2         1 SU3      -0.3947
      4 CA        -17.1026   -5.3846    8.0457 C.3         1 SU3       0.1363
      5 CB        -17.1877   -4.2685    9.1173 C.3         1 SU3       0.0206
      6 CG        -15.9245   -3.4275    8.8833 C.3         1 SU3       0.1158
      7 CAF       -15.7824   -5.6199    5.9775 C.2         1 SU3       0.2070
      8 OAG       -16.0613   -6.8132    5.9567 O.2         1 SU3      -0.3942
      9 CAH       -15.0627   -5.0984    4.8019 C.3         1 SU3       0.1378
     10 NAI       -13.7623   -5.7169    4.7588 N.am        1 SU3      -0.2407
     11 CAJ       -12.5720   -5.0758    4.7043 C.2         1 SU3       0.3218
     12 OAK       -11.4635   -5.8272    4.4668 O.3         1 SU3      -0.2633
     13 CAL       -15.8208   -5.2362    3.4127 C.3         1 SU3       0.0025
     14 OAM       -12.4843   -3.7240    4.7710 O.2         1 SU3      -0.3774
     15 CAO       -14.5350   -3.9002   10.9328 C.2         1 SU3       0.4317
     16 OAP       -15.4220   -3.3016   11.7639 O.2         1 SU3      -0.3166
     17 NAQ       -13.3874   -4.4426   11.4126 N.am        1 SU3      -0.2080
     18 CAR       -21.8358   -6.8326    5.0502 C.3         1 SU3      -0.0516
     19 CAS       -22.0428   -5.3180    4.8242 C.3         1 SU3      -0.0651
     20 CAT       -17.1869   -4.4711    3.4648 C.3         1 SU3      -0.0558
     21 NAV       -19.1019   -6.7495    7.8611 N.am        1 SU3      -0.2737
     22 CAX       -20.3796   -7.1264    7.3427 C.3         1 SU3       0.1374
     23 CAY       -21.5188   -6.9529    8.2251 C.2         1 SU3       0.2444
     24 CAZ       -20.5044   -7.1290    5.7929 C.3         1 SU3      -0.0066
     25 CBA       -20.3649   -8.4550    6.5522 C.3         1 SU3      -0.0152
     26 CBB       -12.9890   -4.4585   12.7030 C.2         1 SU3       0.0383
     27 CBC       -11.7535   -5.0974   12.7855 C.ar        1 SU3      -0.0374
     28 CBD       -11.4031   -5.4858   11.4930 C.ar        1 SU3      -0.0293
     29 CBE       -12.4389   -5.0581   10.6675 C.2         1 SU3       0.0366
     30 CBF       -10.9165   -5.3578   13.8791 C.ar        1 SU3      -0.0689
     31 CBG        -9.6910   -6.0165   13.6458 C.ar        1 SU3      -0.0688
     32 CBH        -9.3321   -6.4127   12.3391 C.ar        1 SU3      -0.0606
     33 CBI       -10.1860   -6.1650   11.2342 C.ar        1 SU3      -0.0432
     34 CBJ        -9.7901   -6.5944    9.8652 C.3         1 SU3      -0.0194
     35 NBK       -21.5368   -7.5313    9.4161 N.am        1 SU3      -0.1552
     36 OBL       -22.4051   -6.1882    7.8761 O.2         1 SU3      -0.3404
     37 SBM       -22.7894   -7.3682   10.5369 S.o2        1 SU3       0.0645
     38 CBN       -22.7410   -5.8742   11.5588 C.3         1 SU3       0.1004
     39 OBO       -24.1921   -7.6380    9.8352 O.2         1 SU3      -0.1503
     40 OBP       -22.6362   -8.6013   11.5295 O.2         1 SU3      -0.1503
     41 CBQ       -22.7556   -4.5169   10.8393 C.3         1 SU3      -0.0268
     42 CBR       -23.9887   -4.9800   11.6254 C.3         1 SU3      -0.0268
     43 CBS        -8.7672   -5.6172    9.2256 C.3         1 SU3      -0.0433
     44 CBT        -8.3479   -5.9839    7.7744 C.3         1 SU3      -0.0507
     45 CBU        -9.3865   -5.5975    6.6771 C.3         1 SU3      -0.0453
     46 CBV        -9.0623   -6.0262    5.1963 C.3         1 SU3      -0.0072
     47 CBW       -10.1165   -5.3769    4.2338 C.3         1 SU3       0.0824
     48 CBX        -7.6444   -5.5284    4.7592 C.3         1 SU3      -0.0574
     49 CBY        -9.1230   -7.5802    5.0327 C.3         1 SU3      -0.0574
     50 CBZ       -14.9553   -4.5782    2.2826 C.3         1 SU3      -0.0558
     51 CCA       -16.1010   -6.7190    2.9890 C.3         1 SU3      -0.0558
     52 CD1       -15.6764   -3.5941    7.3736 C.3         1 SU3       0.0677
     53 OD2       -14.7897   -3.9395    9.5979 O.3         1 SU3      -0.2338
     54 H1        -16.6767   -6.2812    8.5156 H           1 SU3       0.0803
     55 H2        -17.2298   -4.6850   10.1270 H           1 SU3       0.0342
     56 H3        -18.0624   -3.6239    8.9771 H           1 SU3       0.0342
     57 H4        -16.0835   -2.3750    9.1406 H           1 SU3       0.0673
     58 H5        -14.9342   -4.0235    4.9395 H           1 SU3       0.0805
     59 H6        -13.7395   -6.6833    4.6792 H           1 SU3       0.1899
     60 H7        -21.8019   -7.3251    4.0752 H           1 SU3       0.0265
     61 H8        -22.6911   -7.2356    5.5974 H           1 SU3       0.0265
     62 H9        -22.9873   -5.1512    4.3021 H           1 SU3       0.0230
     63 H10       -21.2320   -4.9087    4.2179 H           1 SU3       0.0230
     64 H11       -22.0752   -4.7816    5.7743 H           1 SU3       0.0230
     65 H12       -17.6812   -4.4819    2.4899 H           1 SU3       0.0237
     66 H13       -17.0358   -3.4288    3.7556 H           1 SU3       0.0237
     67 H14       -17.8661   -4.9297    4.1870 H           1 SU3       0.0237
     68 H15       -18.7130   -7.3201    8.5412 H           1 SU3       0.1839
     69 H16       -19.5904   -6.8690    5.2488 H           1 SU3       0.0312
     70 H17       -21.2636   -9.0776    6.5701 H           1 SU3       0.0279
     71 H18       -19.3970   -8.9491    6.4229 H           1 SU3       0.0279
     72 H19       -13.4953   -4.0644   13.4995 H           1 SU3       0.0373
     73 H20       -12.4708   -5.1858    9.6532 H           1 SU3       0.0361
     74 H21       -11.1776   -5.0650   14.8238 H           1 SU3       0.0557
     75 H22        -9.0603   -6.2057   14.4280 H           1 SU3       0.0599
     76 H23        -8.4374   -6.8895   12.1985 H           1 SU3       0.0557
     77 H24       -10.6688   -6.6703    9.2240 H           1 SU3       0.0426
     78 H25        -9.3562   -7.5974    9.9154 H           1 SU3       0.0426
     79 H26       -20.7853   -8.0929    9.6651 H           1 SU3       0.2148
     80 H27       -22.1242   -5.8867   12.4582 H           1 SU3       0.0559
     81 H28       -22.9066   -4.4961    9.7608 H           1 SU3       0.0285
     82 H29       -22.1988   -3.7059   11.3100 H           1 SU3       0.0285
     83 H30       -24.1595   -4.4516   12.5644 H           1 SU3       0.0285
     84 H31       -24.8465   -5.2615   11.0100 H           1 SU3       0.0285
     85 H32        -7.8658   -5.6135    9.8453 H           1 SU3       0.0287
     86 H33        -9.1765   -4.6043    9.2352 H           1 SU3       0.0287
     87 H34        -8.1346   -7.0528    7.7286 H           1 SU3       0.0267
     88 H35        -7.4151   -5.4535    7.5664 H           1 SU3       0.0267
     89 H36        -9.4987   -4.5096    6.7111 H           1 SU3       0.0271
     90 H37       -10.3537   -6.0227    6.9527 H           1 SU3       0.0271
     91 H38       -10.0540   -4.2870    4.3012 H           1 SU3       0.0617
     92 H39        -9.8826   -5.6424    3.1999 H           1 SU3       0.0617
     93 H40        -6.8564   -6.0327    5.3217 H           1 SU3       0.0236
     94 H41        -7.5455   -4.4525    4.9216 H           1 SU3       0.0236
     95 H42        -7.4673   -5.7300    3.6999 H           1 SU3       0.0236
     96 H43       -10.0861   -7.9700    5.3686 H           1 SU3       0.0236
     97 H44        -8.3390   -8.0709    5.6113 H           1 SU3       0.0236
     98 H45        -8.9881   -7.8651    3.9865 H           1 SU3       0.0236
     99 H46       -14.0134   -5.1126    2.1523 H           1 SU3       0.0237
    100 H47       -14.7265   -3.5387    2.5231 H           1 SU3       0.0237
    101 H48       -15.4795   -4.5924    1.3252 H           1 SU3       0.0237
    102 H49       -16.8173   -7.2016    3.6554 H           1 SU3       0.0237
    103 H50       -15.1815   -7.3071    2.9907 H           1 SU3       0.0237
    104 H51       -16.5222   -6.7616    1.9813 H           1 SU3       0.0237
    105 H52       -16.2325   -2.8443    6.8040 H           1 SU3       0.0553
    106 H53       -14.6076   -3.4780    7.1716 H           1 SU3       0.0553
@<TRIPOS>BOND
     1     1     3   2
     2     1     4   1
     3    21     1  am
     4     4     2   1
     5     2     7  am
     6     2    52   1
     7     4     5   1
     8     5     6   1
     9     6    52   1
    10     6    53   1
    11     7     8   2
    12     7     9   1
    13     9    10   1
    14     9    13   1
    15    10    11  am
    16    11    12   1
    17    11    14   2
    18    12    47   1
    19    13    20   1
    20    13    50   1
    21    13    51   1
    22    15    16   2
    23    15    17  am
    24    53    15   1
    25    17    26   1
    26    17    29   1
    27    18    19   1
    28    24    18   1
    29    22    21   1
    30    22    23   1
    31    22    24   1
    32    22    25   1
    33    23    35  am
    34    23    36   2
    35    24    25   1
    36    26    27   2
    37    27    28  ar
    38    27    30  ar
    39    28    29   2
    40    28    33  ar
    41    30    31  ar
    42    31    32  ar
    43    32    33  ar
    44    33    34   1
    45    34    43   1
    46    35    37  am
    47    37    38   1
    48    37    39   2
    49    37    40   2
    50    38    41   1
    51    38    42   1
    52    41    42   1
    53    43    44   1
    54    44    45   1
    55    45    46   1
    56    46    47   1
    57    46    48   1
    58    46    49   1
    59     4    54   1
    60     5    55   1
    61     5    56   1
    62     6    57   1
    63     9    58   1
    64    10    59   1
    65    18    60   1
    66    18    61   1
    67    19    62   1
    68    19    63   1
    69    19    64   1
    70    20    65   1
    71    20    66   1
    72    20    67   1
    73    21    68   1
    74    24    69   1
    75    25    70   1
    76    25    71   1
    77    26    72   1
    78    29    73   1
    79    30    74   1
    80    31    75   1
    81    32    76   1
    82    34    77   1
    83    34    78   1
    84    35    79   1
    85    38    80   1
    86    41    81   1
    87    41    82   1
    88    42    83   1
    89    42    84   1
    90    43    85   1
    91    43    86   1
    92    44    87   1
    93    44    88   1
    94    45    89   1
    95    45    90   1
    96    47    91   1
    97    47    92   1
    98    48    93   1
    99    48    94   1
   100    48    95   1
   101    49    96   1
   102    49    97   1
   103    49    98   1
   104    50    99   1
   105    50   100   1
   106    50   101   1
   107    51   102   1
   108    51   103   1
   109    51   104   1
   110    52   105   1
   111    52   106   1
@<TRIPOS>SUBSTRUCTURE
     1  SU3      1

