@<TRIPOS>MOLECULE
3su3_ligand_057
   106   111
SMALL
GAST_HUCK
****
This file was generated by PARSER (from files_GN.cpp)

@<TRIPOS>ATOM
      1 C         -11.3371   -9.4594   11.2229 C.2         1 SU3       0.2013
      2 N         -12.7976  -11.5001   11.4630 N.am        1 SU3      -0.2469
      3 O         -10.4447   -8.9049   10.5848 O.2         1 SU3      -0.3947
      4 CA        -11.6095  -10.8677   10.9132 C.3         1 SU3       0.1363
      5 CB        -11.7448  -11.0873    9.3840 C.3         1 SU3       0.0206
      6 CG        -12.6139  -12.3446    9.2753 C.3         1 SU3       0.1158
      7 CAF       -13.0652  -11.5867   12.7818 C.2         1 SU3       0.2070
      8 OAG       -12.1740  -11.2792   13.5620 O.2         1 SU3      -0.3942
      9 CAH       -14.3519  -11.9862   13.3829 C.3         1 SU3       0.1378
     10 NAI       -14.0823  -13.0269   14.3406 N.am        1 SU3      -0.2407
     11 CAJ       -14.6222  -14.2678   14.3542 C.2         1 SU3       0.3218
     12 OAK       -14.3110  -15.0547   15.4159 O.3         1 SU3      -0.2633
     13 CAL       -15.1863  -10.7908   14.0169 C.3         1 SU3       0.0025
     14 OAM       -15.4892  -14.6872   13.3997 O.2         1 SU3      -0.3774
     15 CAO       -10.9500  -14.1588    8.6958 C.2         1 SU3       0.4317
     16 OAP       -10.7184  -13.6582    7.4573 O.2         1 SU3      -0.3166
     17 NAQ       -10.3008  -15.2685    9.1297 N.am        1 SU3      -0.2080
     18 CAR       -11.5467   -4.8331   11.7579 C.3         1 SU3      -0.0516
     19 CAS       -10.0060   -4.7317   11.7330 C.3         1 SU3      -0.0651
     20 CAT       -16.4749  -11.3521   14.7144 C.3         1 SU3      -0.0558
     21 NAV       -11.9693   -8.8034   12.1876 N.am        1 SU3      -0.2737
     22 CAX       -11.6857   -7.4776   12.6694 C.3         1 SU3       0.1374
     23 CAY       -10.5653   -7.3075   13.5767 C.2         1 SU3       0.2444
     24 CAZ       -12.0687   -6.3034   11.7312 C.3         1 SU3      -0.0066
     25 CBA       -12.9743   -6.6612   12.9279 C.3         1 SU3      -0.0152
     26 CBB        -9.4039  -15.9963    8.4235 C.2         1 SU3       0.0383
     27 CBC        -8.9718  -17.0604    9.2077 C.ar        1 SU3      -0.0374
     28 CBD        -9.6215  -16.9623   10.4367 C.ar        1 SU3      -0.0293
     29 CBE       -10.4407  -15.8397   10.3489 C.2         1 SU3       0.0366
     30 CBF        -8.0741  -18.1060    8.9345 C.ar        1 SU3      -0.0689
     31 CBG        -7.8497  -19.0731    9.9303 C.ar        1 SU3      -0.0688
     32 CBH        -8.5066  -18.9807   11.1780 C.ar        1 SU3      -0.0606
     33 CBI        -9.3965  -17.9142   11.4629 C.ar        1 SU3      -0.0432
     34 CBJ       -10.0666  -17.8343   12.7890 C.3         1 SU3      -0.0194
     35 NBK        -9.3339   -7.3979   13.1018 N.am        1 SU3      -0.1552
     36 OBL       -10.7851   -7.2304   14.7777 O.2         1 SU3      -0.3404
     37 SBM        -7.9123   -7.2060   13.9893 S.o2        1 SU3       0.0645
     38 CBN        -6.4942   -6.7889   12.9545 C.3         1 SU3       0.1004
     39 OBO        -8.0989   -5.9651   14.9690 O.2         1 SU3      -0.1503
     40 OBP        -7.5799   -8.4986   14.8537 O.2         1 SU3      -0.1503
     41 CBQ        -5.9855   -7.8672   11.9883 C.3         1 SU3      -0.0268
     42 CBR        -6.6727   -6.6070   11.4407 C.3         1 SU3      -0.0268
     43 CBS       -11.2579  -18.8243   12.8955 C.3         1 SU3      -0.0433
     44 CBT       -11.9933  -18.7896   14.2650 C.3         1 SU3      -0.0507
     45 CBU       -12.9900  -17.6032   14.4352 C.3         1 SU3      -0.0453
     46 CBV       -13.6918  -17.4468   15.8378 C.3         1 SU3      -0.0072
     47 CBW       -14.8180  -16.3610   15.7265 C.3         1 SU3       0.0824
     48 CBX       -14.3696  -18.7809   16.2916 C.3         1 SU3      -0.0574
     49 CBY       -12.6636  -16.9986   16.9272 C.3         1 SU3      -0.0574
     50 CBZ       -14.3835   -9.9727   15.0867 C.3         1 SU3      -0.0558
     51 CCA       -15.6671   -9.8226   12.8820 C.3         1 SU3      -0.0558
     52 CD1       -13.5825  -12.1486   10.4520 C.3         1 SU3       0.0677
     53 OD2       -11.8507  -13.5420    9.5032 O.3         1 SU3      -0.2338
     54 H1        -10.7461  -11.4389   11.2670 H           1 SU3       0.0803
     55 H2        -10.7726  -11.2149    8.9018 H           1 SU3       0.0342
     56 H3        -12.2695  -10.2528    8.9070 H           1 SU3       0.0342
     57 H4        -13.1490  -12.4030    8.3234 H           1 SU3       0.0673
     58 H5        -15.0004  -12.3966   12.6082 H           1 SU3       0.0805
     59 H6        -13.4912  -12.7975   15.0775 H           1 SU3       0.1899
     60 H7        -11.9431   -4.3401   10.8580 H           1 SU3       0.0265
     61 H8        -11.9239   -4.2624   12.6180 H           1 SU3       0.0265
     62 H9         -9.7174   -3.7097   11.4770 H           1 SU3       0.0230
     63 H10        -9.5887   -5.4208   10.9870 H           1 SU3       0.0230
     64 H11        -9.6108   -4.9613   12.7278 H           1 SU3       0.0230
     65 H12       -17.1010  -10.5394   15.0940 H           1 SU3       0.0237
     66 H13       -16.2170  -11.9936   15.5601 H           1 SU3       0.0237
     67 H14       -17.0723  -11.9379   14.0105 H           1 SU3       0.0237
     68 H15       -12.6478   -9.2961   12.6801 H           1 SU3       0.1839
     69 H16       -12.4918   -6.6210   10.7710 H           1 SU3       0.0312
     70 H17       -12.9559   -5.9945   13.7973 H           1 SU3       0.0279
     71 H18       -13.9314   -7.1102   12.6487 H           1 SU3       0.0279
     72 H19        -9.0945  -15.8128    7.4663 H           1 SU3       0.0373
     73 H20       -11.0589  -15.5044   11.0930 H           1 SU3       0.0361
     74 H21        -7.6051  -18.1690    8.0290 H           1 SU3       0.0557
     75 H22        -7.2064  -19.8484    9.7514 H           1 SU3       0.0599
     76 H23        -8.3221  -19.6985   11.8838 H           1 SU3       0.0557
     77 H24       -10.4205  -16.8204   12.9740 H           1 SU3       0.0426
     78 H25        -9.3342  -18.0563   13.5700 H           1 SU3       0.0426
     79 H26        -9.2427   -7.5476   12.1511 H           1 SU3       0.2148
     80 H27        -5.7101   -6.1824   13.3987 H           1 SU3       0.0559
     81 H28        -6.5676   -8.7848   11.8864 H           1 SU3       0.0285
     82 H29        -4.9068   -7.9033   11.8303 H           1 SU3       0.0285
     83 H30        -6.0086   -5.8820   10.9664 H           1 SU3       0.0285
     84 H31        -7.6546   -6.7871   11.0049 H           1 SU3       0.0285
     85 H32       -10.8758  -19.8390   12.7447 H           1 SU3       0.0287
     86 H33       -11.9751  -18.6226   12.0940 H           1 SU3       0.0287
     87 H34       -11.2489  -18.7773   15.0618 H           1 SU3       0.0267
     88 H35       -12.5536  -19.7232   14.3526 H           1 SU3       0.0267
     89 H36       -13.7604  -17.7227   13.6674 H           1 SU3       0.0271
     90 H37       -12.4625  -16.6739   14.2081 H           1 SU3       0.0271
     91 H38       -15.5634  -16.6757   14.9898 H           1 SU3       0.0617
     92 H39       -15.3391  -16.2664   16.6818 H           1 SU3       0.0617
     93 H40       -13.6268  -19.5538   16.4948 H           1 SU3       0.0236
     94 H41       -15.0481  -19.1502   15.5194 H           1 SU3       0.0236
     95 H42       -14.9460  -18.6340   17.2079 H           1 SU3       0.0236
     96 H43       -12.1553  -16.0807   16.6248 H           1 SU3       0.0236
     97 H44       -11.9051  -17.7642   17.0986 H           1 SU3       0.0236
     98 H45       -13.1654  -16.8102   17.8788 H           1 SU3       0.0236
     99 H46       -13.5461   -9.4403   14.6341 H           1 SU3       0.0237
    100 H47       -13.9935  -10.6345   15.8644 H           1 SU3       0.0237
    101 H48       -15.0212   -9.2231   15.5638 H           1 SU3       0.0237
    102 H49       -16.3080  -10.3491   12.1697 H           1 SU3       0.0237
    103 H50       -14.8194   -9.4165   12.3284 H           1 SU3       0.0237
    104 H51       -16.2349   -8.9848   13.2970 H           1 SU3       0.0237
    105 H52       -14.4261  -11.5116   10.1652 H           1 SU3       0.0553
    106 H53       -13.9569  -13.1295   10.7619 H           1 SU3       0.0553
@<TRIPOS>BOND
     1     1     3   2
     2     1     4   1
     3    21     1  am
     4     4     2   1
     5     2     7  am
     6     2    52   1
     7     4     5   1
     8     5     6   1
     9     6    52   1
    10     6    53   1
    11     7     8   2
    12     7     9   1
    13     9    10   1
    14     9    13   1
    15    10    11  am
    16    11    12   1
    17    11    14   2
    18    12    47   1
    19    13    20   1
    20    13    50   1
    21    13    51   1
    22    15    16   2
    23    15    17  am
    24    53    15   1
    25    17    26   1
    26    17    29   1
    27    18    19   1
    28    24    18   1
    29    22    21   1
    30    22    23   1
    31    22    24   1
    32    22    25   1
    33    23    35  am
    34    23    36   2
    35    24    25   1
    36    26    27   2
    37    27    28  ar
    38    27    30  ar
    39    28    29   2
    40    28    33  ar
    41    30    31  ar
    42    31    32  ar
    43    32    33  ar
    44    33    34   1
    45    34    43   1
    46    35    37  am
    47    37    38   1
    48    37    39   2
    49    37    40   2
    50    38    41   1
    51    38    42   1
    52    41    42   1
    53    43    44   1
    54    44    45   1
    55    45    46   1
    56    46    47   1
    57    46    48   1
    58    46    49   1
    59     4    54   1
    60     5    55   1
    61     5    56   1
    62     6    57   1
    63     9    58   1
    64    10    59   1
    65    18    60   1
    66    18    61   1
    67    19    62   1
    68    19    63   1
    69    19    64   1
    70    20    65   1
    71    20    66   1
    72    20    67   1
    73    21    68   1
    74    24    69   1
    75    25    70   1
    76    25    71   1
    77    26    72   1
    78    29    73   1
    79    30    74   1
    80    31    75   1
    81    32    76   1
    82    34    77   1
    83    34    78   1
    84    35    79   1
    85    38    80   1
    86    41    81   1
    87    41    82   1
    88    42    83   1
    89    42    84   1
    90    43    85   1
    91    43    86   1
    92    44    87   1
    93    44    88   1
    94    45    89   1
    95    45    90   1
    96    47    91   1
    97    47    92   1
    98    48    93   1
    99    48    94   1
   100    48    95   1
   101    49    96   1
   102    49    97   1
   103    49    98   1
   104    50    99   1
   105    50   100   1
   106    50   101   1
   107    51   102   1
   108    51   103   1
   109    51   104   1
   110    52   105   1
   111    52   106   1
@<TRIPOS>SUBSTRUCTURE
     1  SU3      1

