@<TRIPOS>MOLECULE
3su3_ligand_018
   106   111
SMALL
GAST_HUCK
****
This file was generated by PARSER (from files_GN.cpp)

@<TRIPOS>ATOM
      1 C         -14.6104   -7.8028   13.8742 C.2         1 SU3       0.2013
      2 N         -14.9368   -7.8023   11.4325 N.am        1 SU3      -0.2469
      3 O         -15.3562   -7.7583   14.8386 O.2         1 SU3      -0.3947
      4 CA        -15.0718   -8.5214   12.6823 C.3         1 SU3       0.1363
      5 CB        -14.3032   -9.8498   12.4733 C.3         1 SU3       0.0206
      6 CG        -14.4212  -10.0619   10.9574 C.3         1 SU3       0.1158
      7 CAF       -15.4024   -6.5537   11.2315 C.2         1 SU3       0.2070
      8 OAG       -16.0924   -6.0551   12.1164 O.2         1 SU3      -0.3942
      9 CAH       -15.1858   -5.7152   10.0393 C.3         1 SU3       0.1378
     10 NAI       -16.4841   -5.3323    9.5371 N.am        1 SU3      -0.2407
     11 CAJ       -16.9718   -5.5717    8.2963 C.2         1 SU3       0.3218
     12 OAK       -18.1858   -5.0436    7.9876 O.3         1 SU3      -0.2633
     13 CAL       -14.2266   -4.4674   10.2583 C.3         1 SU3       0.0025
     14 OAM       -16.2580   -6.2484    7.3639 O.2         1 SU3      -0.3774
     15 CAO       -16.2170  -11.8364   10.8267 C.2         1 SU3       0.4317
     16 OAP       -15.4276  -12.8010   11.3608 O.2         1 SU3      -0.3166
     17 NAQ       -17.5184  -12.0821   10.5334 N.am        1 SU3      -0.2080
     18 CAR       -12.8788   -4.4359   16.7477 C.3         1 SU3      -0.0516
     19 CAS       -11.4277   -4.4005   17.2886 C.3         1 SU3      -0.0651
     20 CAT       -14.2653   -3.5399    8.9959 C.3         1 SU3      -0.0558
     21 NAV       -13.4122   -7.2194   13.8614 N.am        1 SU3      -0.2737
     22 CAX       -12.7386   -6.4243   14.8548 C.3         1 SU3       0.1374
     23 CAY       -11.4479   -5.9317   14.3888 C.2         1 SU3       0.2444
     24 CAZ       -13.4083   -5.7464   16.0858 C.3         1 SU3      -0.0066
     25 CBA       -12.7001   -7.0970   16.2483 C.3         1 SU3      -0.0152
     26 CBB       -18.1682  -13.2564   10.6882 C.2         1 SU3       0.0383
     27 CBC       -19.4972  -13.0855   10.3138 C.ar        1 SU3      -0.0374
     28 CBD       -19.6524  -11.7556    9.9256 C.ar        1 SU3      -0.0293
     29 CBE       -18.3993  -11.1662   10.0628 C.2         1 SU3       0.0366
     30 CBF       -20.5732  -13.9843   10.2893 C.ar        1 SU3      -0.0689
     31 CBG       -21.8299  -13.5142    9.8566 C.ar        1 SU3      -0.0688
     32 CBH       -21.9928  -12.1668    9.4663 C.ar        1 SU3      -0.0606
     33 CBI       -20.9068  -11.2543    9.4989 C.ar        1 SU3      -0.0432
     34 CBJ       -21.1024   -9.8359    9.0911 C.3         1 SU3      -0.0194
     35 NBK       -10.4095   -6.7489   14.3402 N.am        1 SU3      -0.1552
     36 OBL       -11.3704   -4.7762   13.9926 O.2         1 SU3      -0.3404
     37 SBM        -8.8243   -6.2965   13.9587 S.o2        1 SU3       0.0645
     38 CBN        -7.8025   -7.7921   13.9209 C.3         1 SU3       0.1004
     39 OBO        -8.7751   -5.5454   12.5580 O.2         1 SU3      -0.1503
     40 OBP        -8.2849   -5.3690   15.1323 O.2         1 SU3      -0.1503
     41 CBQ        -7.3627   -8.3558   12.5602 C.3         1 SU3      -0.0268
     42 CBR        -6.3377   -7.6763   13.4777 C.3         1 SU3      -0.0268
     43 CBS       -21.0822   -9.6691    7.5478 C.3         1 SU3      -0.0433
     44 CBT       -21.3193   -8.2115    7.0582 C.3         1 SU3      -0.0507
     45 CBU       -20.0763   -7.2763    7.1644 C.3         1 SU3      -0.0453
     46 CBV       -20.2771   -5.7569    6.7905 C.3         1 SU3      -0.0072
     47 CBW       -18.8738   -5.0593    6.7237 C.3         1 SU3       0.0824
     48 CBX       -20.9580   -5.6023    5.3906 C.3         1 SU3      -0.0574
     49 CBY       -21.1547   -5.0279    7.8595 C.3         1 SU3      -0.0574
     50 CBZ       -14.6037   -3.5979   11.5042 C.3         1 SU3      -0.0558
     51 CCA       -12.7489   -4.9602   10.4350 C.3         1 SU3      -0.0558
     52 CD1       -14.3279   -8.6196   10.4218 C.3         1 SU3       0.0677
     53 OD2       -15.7129  -10.5905   10.6207 O.3         1 SU3      -0.2338
     54 H1        -16.1346   -8.7706   12.7933 H           1 SU3       0.0803
     55 H2        -14.7477  -10.6706   13.0435 H           1 SU3       0.0342
     56 H3        -13.2442   -9.7687   12.7419 H           1 SU3       0.0342
     57 H4        -13.6238  -10.6935   10.5531 H           1 SU3       0.0673
     58 H5        -14.6971   -6.3152    9.2727 H           1 SU3       0.0805
     59 H6        -17.0473   -4.8105   10.1324 H           1 SU3       0.1899
     60 H7        -13.0132   -3.6235   16.0300 H           1 SU3       0.0265
     61 H8        -13.5401   -4.2179   17.5853 H           1 SU3       0.0265
     62 H9        -11.2589   -3.4705   17.8336 H           1 SU3       0.0230
     63 H10       -10.7084   -4.4482   16.4735 H           1 SU3       0.0230
     64 H11       -11.2503   -5.2286   17.9744 H           1 SU3       0.0230
     65 H12       -13.5531   -2.7183    9.0855 H           1 SU3       0.0237
     66 H13       -15.2563   -3.1017    8.8633 H           1 SU3       0.0237
     67 H14       -14.0184   -4.1026    8.0933 H           1 SU3       0.0237
     68 H15       -12.9106   -7.3435   13.0421 H           1 SU3       0.1839
     69 H16       -14.4976   -5.8067   16.0718 H           1 SU3       0.0312
     70 H17       -11.7400   -7.1155   16.7584 H           1 SU3       0.0279
     71 H18       -13.3766   -7.9345   16.4296 H           1 SU3       0.0279
     72 H19       -17.7649  -14.1311   11.0310 H           1 SU3       0.0373
     73 H20       -18.1860  -10.1880    9.8549 H           1 SU3       0.0361
     74 H21       -20.4514  -14.9578   10.5757 H           1 SU3       0.0557
     75 H22       -22.6275  -14.1524    9.8274 H           1 SU3       0.0599
     76 H23       -22.9171  -11.8520    9.1598 H           1 SU3       0.0557
     77 H24       -20.3314   -9.2041    9.5334 H           1 SU3       0.0426
     78 H25       -22.0585   -9.4789    9.4843 H           1 SU3       0.0426
     79 H26       -10.5389   -7.6710   14.6191 H           1 SU3       0.2148
     80 H27        -7.9628   -8.5312   14.7061 H           1 SU3       0.0559
     81 H28        -7.6097   -7.7883   11.6617 H           1 SU3       0.0285
     82 H29        -7.2626   -9.4405   12.4920 H           1 SU3       0.0285
     83 H30        -5.6378   -8.3593   13.9611 H           1 SU3       0.0285
     84 H31        -5.9868   -6.6982   13.1454 H           1 SU3       0.0285
     85 H32       -21.8730  -10.2967    7.1258 H           1 SU3       0.0287
     86 H33       -20.1296  -10.0330    7.1520 H           1 SU3       0.0287
     87 H34       -22.1605   -7.7872    7.6092 H           1 SU3       0.0267
     88 H35       -21.6128   -8.2711    6.0069 H           1 SU3       0.0267
     89 H36       -19.3057   -7.6985    6.5120 H           1 SU3       0.0271
     90 H37       -19.6887   -7.3303    8.1843 H           1 SU3       0.0271
     91 H38       -18.2607   -5.5361    5.9532 H           1 SU3       0.0617
     92 H39       -18.9930   -4.0141    6.4280 H           1 SU3       0.0617
     93 H40       -21.9832   -5.9750    5.4070 H           1 SU3       0.0236
     94 H41       -20.4046   -6.1548    4.6287 H           1 SU3       0.0236
     95 H42       -20.9978   -4.5532    5.0892 H           1 SU3       0.0236
     96 H43       -20.7283   -5.1405    8.8582 H           1 SU3       0.0236
     97 H44       -22.1688   -5.4279    7.8785 H           1 SU3       0.0236
     98 H45       -21.2236   -3.9603    7.6395 H           1 SU3       0.0236
     99 H46       -14.4183   -4.1394   12.4333 H           1 SU3       0.0237
    100 H47       -15.6575   -3.3169   11.4709 H           1 SU3       0.0237
    101 H48       -14.0087   -2.6827   11.5402 H           1 SU3       0.0237
    102 H49       -12.4156   -5.5141    9.5538 H           1 SU3       0.0237
    103 H50       -12.6559   -5.6178   11.3012 H           1 SU3       0.0237
    104 H51       -12.0685   -4.1176   10.5786 H           1 SU3       0.0237
    105 H52       -13.2852   -8.3185   10.2789 H           1 SU3       0.0553
    106 H53       -14.8564   -8.5651    9.4656 H           1 SU3       0.0553
@<TRIPOS>BOND
     1     1     3   2
     2     1     4   1
     3    21     1  am
     4     4     2   1
     5     2     7  am
     6     2    52   1
     7     4     5   1
     8     5     6   1
     9     6    52   1
    10     6    53   1
    11     7     8   2
    12     7     9   1
    13     9    10   1
    14     9    13   1
    15    10    11  am
    16    11    12   1
    17    11    14   2
    18    12    47   1
    19    13    20   1
    20    13    50   1
    21    13    51   1
    22    15    16   2
    23    15    17  am
    24    53    15   1
    25    17    26   1
    26    17    29   1
    27    18    19   1
    28    24    18   1
    29    22    21   1
    30    22    23   1
    31    22    24   1
    32    22    25   1
    33    23    35  am
    34    23    36   2
    35    24    25   1
    36    26    27   2
    37    27    28  ar
    38    27    30  ar
    39    28    29   2
    40    28    33  ar
    41    30    31  ar
    42    31    32  ar
    43    32    33  ar
    44    33    34   1
    45    34    43   1
    46    35    37  am
    47    37    38   1
    48    37    39   2
    49    37    40   2
    50    38    41   1
    51    38    42   1
    52    41    42   1
    53    43    44   1
    54    44    45   1
    55    45    46   1
    56    46    47   1
    57    46    48   1
    58    46    49   1
    59     4    54   1
    60     5    55   1
    61     5    56   1
    62     6    57   1
    63     9    58   1
    64    10    59   1
    65    18    60   1
    66    18    61   1
    67    19    62   1
    68    19    63   1
    69    19    64   1
    70    20    65   1
    71    20    66   1
    72    20    67   1
    73    21    68   1
    74    24    69   1
    75    25    70   1
    76    25    71   1
    77    26    72   1
    78    29    73   1
    79    30    74   1
    80    31    75   1
    81    32    76   1
    82    34    77   1
    83    34    78   1
    84    35    79   1
    85    38    80   1
    86    41    81   1
    87    41    82   1
    88    42    83   1
    89    42    84   1
    90    43    85   1
    91    43    86   1
    92    44    87   1
    93    44    88   1
    94    45    89   1
    95    45    90   1
    96    47    91   1
    97    47    92   1
    98    48    93   1
    99    48    94   1
   100    48    95   1
   101    49    96   1
   102    49    97   1
   103    49    98   1
   104    50    99   1
   105    50   100   1
   106    50   101   1
   107    51   102   1
   108    51   103   1
   109    51   104   1
   110    52   105   1
   111    52   106   1
@<TRIPOS>SUBSTRUCTURE
     1  SU3      1

