@<TRIPOS>MOLECULE
3su3_ligand_077
   106   111
SMALL
GAST_HUCK
****
This file was generated by PARSER (from files_GN.cpp)

@<TRIPOS>ATOM
      1 C         -16.2423  -18.5091   18.9510 C.2         1 SU3       0.2013
      2 N         -15.9618  -16.2360   17.9580 N.am        1 SU3      -0.2469
      3 O         -17.3193  -18.1779   19.4334 O.2         1 SU3      -0.3947
      4 CA        -15.5399  -17.6312   18.0118 C.3         1 SU3       0.1363
      5 CB        -14.0190  -17.5641   18.3344 C.3         1 SU3       0.0206
      6 CG        -13.5985  -16.1610   17.8981 C.3         1 SU3       0.1158
      7 CAF       -17.2096  -15.8200   17.6557 C.2         1 SU3       0.2070
      8 OAG       -18.0081  -16.6525   17.2420 O.2         1 SU3      -0.3942
      9 CAH       -17.7303  -14.4486   17.8280 C.3         1 SU3       0.1378
     10 NAI       -18.2178  -13.9898   16.5515 N.am        1 SU3      -0.2407
     11 CAJ       -17.8223  -12.8852   15.8881 C.2         1 SU3       0.3218
     12 OAK       -18.5185  -12.5524   14.7692 O.3         1 SU3      -0.2633
     13 CAL       -18.8229  -14.2639   18.9631 C.3         1 SU3       0.0025
     14 OAM       -16.8315  -12.0875   16.3527 O.2         1 SU3      -0.3774
     15 CAO       -12.2265  -16.5328   15.8099 C.2         1 SU3       0.4317
     16 OAP       -11.1858  -17.0578   16.4964 O.2         1 SU3      -0.3166
     17 NAQ       -12.1714  -16.3983   14.4608 N.am        1 SU3      -0.2080
     18 CAR       -18.6708  -21.8446   20.7046 C.3         1 SU3      -0.0516
     19 CAS       -19.6651  -20.7178   21.0640 C.3         1 SU3      -0.0651
     20 CAT       -19.0795  -12.7338   19.2019 C.3         1 SU3      -0.0558
     21 NAV       -15.7037  -19.6748   19.3076 N.am        1 SU3      -0.2737
     22 CAX       -16.2761  -20.5989   20.2387 C.3         1 SU3       0.1374
     23 CAY       -15.8722  -20.4486   21.6291 C.2         1 SU3       0.2444
     24 CAZ       -17.5635  -21.3202   19.7526 C.3         1 SU3      -0.0066
     25 CBA       -16.2170  -22.0560   19.7295 C.3         1 SU3      -0.0152
     26 CBB       -11.1481  -16.7673   13.6571 C.2         1 SU3       0.0383
     27 CBC       -11.4730  -16.4580   12.3435 C.ar        1 SU3      -0.0374
     28 CBD       -12.7453  -15.8854   12.3512 C.ar        1 SU3      -0.0293
     29 CBE       -13.1450  -15.8629   13.6872 C.2         1 SU3       0.0366
     30 CBF       -10.7578  -16.6275   11.1459 C.ar        1 SU3      -0.0689
     31 CBG       -11.3558  -16.2014    9.9410 C.ar        1 SU3      -0.0688
     32 CBH       -12.6420  -15.6211    9.9497 C.ar        1 SU3      -0.0606
     33 CBI       -13.3668  -15.4520   11.1565 C.ar        1 SU3      -0.0432
     34 CBJ       -14.7194  -14.8300   11.1396 C.3         1 SU3      -0.0194
     35 NBK       -14.5837  -20.2928   21.8941 N.am        1 SU3      -0.1552
     36 OBL       -16.7278  -20.3691   22.4991 O.2         1 SU3      -0.3404
     37 SBM       -13.8820  -20.1114   23.4215 S.o2        1 SU3       0.0645
     38 CBN       -12.7294  -21.4235   23.8814 C.3         1 SU3       0.1004
     39 OBO       -13.1442  -18.7112   23.4501 O.2         1 SU3      -0.1503
     40 OBP       -14.9660  -20.0112   24.5873 O.2         1 SU3      -0.1503
     41 CBQ       -13.2033  -22.8741   23.6926 C.3         1 SU3      -0.0268
     42 CBR       -12.1268  -22.2919   22.7635 C.3         1 SU3      -0.0268
     43 CBS       -14.6506  -13.2926   10.9359 C.3         1 SU3      -0.0433
     44 CBT       -16.0358  -12.5863   10.9489 C.3         1 SU3      -0.0507
     45 CBU       -16.6311  -12.3541   12.3714 C.3         1 SU3      -0.0453
     46 CBV       -18.0599  -11.6957   12.4599 C.3         1 SU3      -0.0072
     47 CBW       -18.3844  -11.3769   13.9594 C.3         1 SU3       0.0824
     48 CBX       -18.1117  -10.3452   11.6740 C.3         1 SU3      -0.0574
     49 CBY       -19.1577  -12.6567   11.8951 C.3         1 SU3      -0.0574
     50 CBZ       -20.1962  -14.9343   18.6135 C.3         1 SU3      -0.0558
     51 CCA       -18.3160  -14.8508   20.3240 C.3         1 SU3      -0.0558
     52 CD1       -14.8631  -15.3432   18.1986 C.3         1 SU3       0.0677
     53 OD2       -13.3224  -16.0997   16.4899 O.3         1 SU3      -0.2338
     54 H1        -15.6585  -18.0492   17.0067 H           1 SU3       0.0803
     55 H2        -13.4615  -18.3398   17.8019 H           1 SU3       0.0342
     56 H3        -13.8301  -17.6702   19.4087 H           1 SU3       0.0342
     57 H4        -12.7429  -15.7898   18.4694 H           1 SU3       0.0673
     58 H5        -16.9056  -13.8066   18.1342 H           1 SU3       0.0805
     59 H6        -18.9491  -14.4944   16.1586 H           1 SU3       0.1899
     60 H7        -19.2135  -22.6423   20.1885 H           1 SU3       0.0265
     61 H8        -18.2438  -22.2660   21.6193 H           1 SU3       0.0265
     62 H9        -20.4447  -21.1101   21.7218 H           1 SU3       0.0230
     63 H10       -20.1363  -20.3234   20.1586 H           1 SU3       0.0230
     64 H11       -19.1529  -19.8997   21.5782 H           1 SU3       0.0230
     65 H12       -19.7913  -12.5736   20.0159 H           1 SU3       0.0237
     66 H13       -19.4809  -12.2576   18.3052 H           1 SU3       0.0237
     67 H14       -18.1530  -12.2196   19.4712 H           1 SU3       0.0237
     68 H15       -14.7950  -19.8568   19.0140 H           1 SU3       0.1839
     69 H16       -17.9045  -21.0264   18.7540 H           1 SU3       0.0312
     70 H17       -16.1039  -22.8513   20.4698 H           1 SU3       0.0279
     71 H18       -15.8072  -22.2199   18.7279 H           1 SU3       0.0279
     72 H19       -10.2694  -17.2003   13.9581 H           1 SU3       0.0373
     73 H20       -14.0337  -15.4906   14.0270 H           1 SU3       0.0361
     74 H21        -9.8265  -17.0446   11.1462 H           1 SU3       0.0557
     75 H22       -10.8525  -16.3150    9.0589 H           1 SU3       0.0599
     76 H23       -13.0515  -15.3238    9.0587 H           1 SU3       0.0557
     77 H24       -15.2482  -15.0443   12.0667 H           1 SU3       0.0426
     78 H25       -15.3059  -15.2809   10.3355 H           1 SU3       0.0426
     79 H26       -13.9797  -20.2688   21.1341 H           1 SU3       0.2148
     80 H27       -12.0867  -21.2646   24.7488 H           1 SU3       0.0559
     81 H28       -14.1781  -23.0260   23.2294 H           1 SU3       0.0285
     82 H29       -12.8344  -23.6013   24.4156 H           1 SU3       0.0285
     83 H30       -11.1163  -22.6625   22.9389 H           1 SU3       0.0285
     84 H31       -12.4525  -22.0880   21.7434 H           1 SU3       0.0285
     85 H32       -14.1814  -13.0951    9.9675 H           1 SU3       0.0287
     86 H33       -14.0117  -12.8475   11.7043 H           1 SU3       0.0287
     87 H34       -16.7312  -13.1635   10.3367 H           1 SU3       0.0267
     88 H35       -15.9043  -11.6139   10.4683 H           1 SU3       0.0267
     89 H36       -15.9223  -11.7215   12.9137 H           1 SU3       0.0271
     90 H37       -16.6608  -13.3122   12.8940 H           1 SU3       0.0271
     91 H38       -17.6246  -10.7044   14.3679 H           1 SU3       0.0617
     92 H39       -19.3398  -10.8521   14.0306 H           1 SU3       0.0617
     93 H40       -18.0034  -10.5058   10.6004 H           1 SU3       0.0236
     94 H41       -17.3124   -9.6774   12.0045 H           1 SU3       0.0236
     95 H42       -19.0660   -9.8366   11.8324 H           1 SU3       0.0236
     96 H43       -19.1213  -13.6271   12.3942 H           1 SU3       0.0236
     97 H44       -19.0260  -12.8227   10.8254 H           1 SU3       0.0236
     98 H45       -20.1542  -12.2360   12.0451 H           1 SU3       0.0236
     99 H46       -20.0986  -16.0182   18.5259 H           1 SU3       0.0237
    100 H47       -20.5910  -14.5496   17.6715 H           1 SU3       0.0237
    101 H48       -20.9380  -14.7255   19.3887 H           1 SU3       0.0237
    102 H49       -17.3518  -14.4170   20.6049 H           1 SU3       0.0237
    103 H50       -18.1964  -15.9284   20.2553 H           1 SU3       0.0237
    104 H51       -19.0290  -14.6597   21.1293 H           1 SU3       0.0237
    105 H52       -14.8757  -15.0179   19.2432 H           1 SU3       0.0553
    106 H53       -14.8627  -14.4665   17.5458 H           1 SU3       0.0553
@<TRIPOS>BOND
     1     1     3   2
     2     1     4   1
     3    21     1  am
     4     4     2   1
     5     2     7  am
     6     2    52   1
     7     4     5   1
     8     5     6   1
     9     6    52   1
    10     6    53   1
    11     7     8   2
    12     7     9   1
    13     9    10   1
    14     9    13   1
    15    10    11  am
    16    11    12   1
    17    11    14   2
    18    12    47   1
    19    13    20   1
    20    13    50   1
    21    13    51   1
    22    15    16   2
    23    15    17  am
    24    53    15   1
    25    17    26   1
    26    17    29   1
    27    18    19   1
    28    24    18   1
    29    22    21   1
    30    22    23   1
    31    22    24   1
    32    22    25   1
    33    23    35  am
    34    23    36   2
    35    24    25   1
    36    26    27   2
    37    27    28  ar
    38    27    30  ar
    39    28    29   2
    40    28    33  ar
    41    30    31  ar
    42    31    32  ar
    43    32    33  ar
    44    33    34   1
    45    34    43   1
    46    35    37  am
    47    37    38   1
    48    37    39   2
    49    37    40   2
    50    38    41   1
    51    38    42   1
    52    41    42   1
    53    43    44   1
    54    44    45   1
    55    45    46   1
    56    46    47   1
    57    46    48   1
    58    46    49   1
    59     4    54   1
    60     5    55   1
    61     5    56   1
    62     6    57   1
    63     9    58   1
    64    10    59   1
    65    18    60   1
    66    18    61   1
    67    19    62   1
    68    19    63   1
    69    19    64   1
    70    20    65   1
    71    20    66   1
    72    20    67   1
    73    21    68   1
    74    24    69   1
    75    25    70   1
    76    25    71   1
    77    26    72   1
    78    29    73   1
    79    30    74   1
    80    31    75   1
    81    32    76   1
    82    34    77   1
    83    34    78   1
    84    35    79   1
    85    38    80   1
    86    41    81   1
    87    41    82   1
    88    42    83   1
    89    42    84   1
    90    43    85   1
    91    43    86   1
    92    44    87   1
    93    44    88   1
    94    45    89   1
    95    45    90   1
    96    47    91   1
    97    47    92   1
    98    48    93   1
    99    48    94   1
   100    48    95   1
   101    49    96   1
   102    49    97   1
   103    49    98   1
   104    50    99   1
   105    50   100   1
   106    50   101   1
   107    51   102   1
   108    51   103   1
   109    51   104   1
   110    52   105   1
   111    52   106   1
@<TRIPOS>SUBSTRUCTURE
     1  SU3      1

