@<TRIPOS>MOLECULE
3su3_ligand_061
   106   111
SMALL
GAST_HUCK
****
This file was generated by PARSER (from files_GN.cpp)

@<TRIPOS>ATOM
      1 C         -10.7496   -5.6793   10.9413 C.2         1 SU3       0.2013
      2 N         -11.4352   -5.8373    8.6053 N.am        1 SU3      -0.2469
      3 O         -10.6162   -4.4827   11.1907 O.2         1 SU3      -0.3947
      4 CA        -10.4325   -6.1686    9.5963 C.3         1 SU3       0.1363
      5 CB         -9.0981   -5.6107    9.0269 C.3         1 SU3       0.0206
      6 CG         -9.3592   -5.5029    7.5180 C.3         1 SU3       0.1158
      7 CAF       -12.7282   -6.2113    8.6965 C.2         1 SU3       0.2070
      8 OAG       -13.0342   -7.0105    9.5715 O.2         1 SU3      -0.3942
      9 CAH       -13.8317   -5.7521    7.8336 C.3         1 SU3       0.1378
     10 NAI       -14.4416   -6.9164    7.2450 N.am        1 SU3      -0.2407
     11 CAJ       -14.5984   -7.1750    5.9275 C.2         1 SU3       0.3218
     12 OAK       -15.3062   -8.2878    5.6007 O.3         1 SU3      -0.2633
     13 CAL       -14.9023   -4.8339    8.5593 C.3         1 SU3       0.0025
     14 OAM       -14.1458   -6.3312    4.9693 O.2         1 SU3      -0.3774
     15 CAO        -7.9148   -7.3310    6.5706 C.2         1 SU3       0.4317
     16 OAP        -6.7674   -6.6719    6.8570 O.2         1 SU3      -0.3166
     17 NAQ        -7.8869   -8.5748    6.0293 N.am        1 SU3      -0.2080
     18 CAR       -12.9155   -7.4324   15.2755 C.3         1 SU3      -0.0516
     19 CAS       -12.4244   -6.9663   16.6626 C.3         1 SU3      -0.0651
     20 CAT       -15.9963   -4.3850    7.5295 C.3         1 SU3      -0.0558
     21 NAV       -11.2815   -6.4933   11.8453 N.am        1 SU3      -0.2737
     22 CAX       -11.5976   -6.1740   13.2114 C.3         1 SU3       0.1374
     23 CAY       -12.3821   -4.9815   13.4894 C.2         1 SU3       0.2444
     24 CAZ       -11.8819   -7.4209   14.1064 C.3         1 SU3      -0.0066
     25 CBA       -10.5532   -6.6614   14.2324 C.3         1 SU3      -0.0152
     26 CBB        -6.7827   -9.2895    5.7172 C.2         1 SU3       0.0383
     27 CBC        -7.1791  -10.5240    5.2139 C.ar        1 SU3      -0.0374
     28 CBD        -8.5745  -10.5564    5.2391 C.ar        1 SU3      -0.0293
     29 CBE        -8.9763   -9.3214    5.7423 C.2         1 SU3       0.0366
     30 CBF        -6.4352  -11.6166    4.7456 C.ar        1 SU3      -0.0689
     31 CBG        -7.1284  -12.7540    4.2863 C.ar        1 SU3      -0.0688
     32 CBH        -8.5409  -12.7896    4.3125 C.ar        1 SU3      -0.0606
     33 CBI        -9.2943  -11.6902    4.7986 C.ar        1 SU3      -0.0432
     34 CBJ       -10.7825  -11.7508    4.8284 C.3         1 SU3      -0.0194
     35 NBK       -13.6576   -4.9586   13.1288 N.am        1 SU3      -0.1552
     36 OBL       -11.8150   -3.9921   13.9328 O.2         1 SU3      -0.3404
     37 SBM       -14.6992   -3.6428   13.2911 S.o2        1 SU3       0.0645
     38 CBN       -14.7642   -2.9108   14.9440 C.3         1 SU3       0.1004
     39 OBO       -14.3241   -2.5134   12.2372 O.2         1 SU3      -0.1503
     40 OBP       -16.1503   -4.1619   12.8889 O.2         1 SU3      -0.1503
     41 CBQ       -16.0836   -2.9064   15.7266 C.3         1 SU3      -0.0268
     42 CBR       -14.9557   -3.8577   16.1384 C.3         1 SU3      -0.0268
     43 CBS       -11.4000  -11.4761    3.4313 C.3         1 SU3      -0.0433
     44 CBT       -12.9540  -11.5066    3.4018 C.3         1 SU3      -0.0507
     45 CBU       -13.6421  -10.2064    3.9201 C.3         1 SU3      -0.0453
     46 CBV       -15.2176  -10.1927    3.9647 C.3         1 SU3      -0.0072
     47 CBW       -15.7107   -8.7413    4.2990 C.3         1 SU3       0.0824
     48 CBX       -15.8307  -10.5906    2.5810 C.3         1 SU3      -0.0574
     49 CBY       -15.7552  -11.1745    5.0567 C.3         1 SU3      -0.0574
     50 CBZ       -15.6357   -5.5426    9.7485 C.3         1 SU3      -0.0558
     51 CCA       -14.2081   -3.5390    9.1000 C.3         1 SU3      -0.0558
     52 CD1       -10.8634   -5.1903    7.4602 C.3         1 SU3       0.0677
     53 OD2        -9.1107   -6.7526    6.8607 O.3         1 SU3      -0.2338
     54 H1        -10.3432   -7.2618    9.6259 H           1 SU3       0.0803
     55 H2         -8.2563   -6.2685    9.2518 H           1 SU3       0.0342
     56 H3         -8.8637   -4.6127    9.4063 H           1 SU3       0.0342
     57 H4         -8.7757   -4.7084    7.0455 H           1 SU3       0.0673
     58 H5        -13.4249   -5.1326    7.0343 H           1 SU3       0.0805
     59 H6        -14.8212   -7.5650    7.8584 H           1 SU3       0.1899
     60 H7        -13.7944   -6.8484   15.0024 H           1 SU3       0.0265
     61 H8        -13.2587   -8.4624   15.3997 H           1 SU3       0.0265
     62 H9        -13.2294   -7.0853   17.3893 H           1 SU3       0.0230
     63 H10       -12.1340   -5.9153   16.6478 H           1 SU3       0.0230
     64 H11       -11.5747   -7.5694   16.9808 H           1 SU3       0.0230
     65 H12       -16.7040   -3.6872    7.9853 H           1 SU3       0.0237
     66 H13       -16.5659   -5.2424    7.1644 H           1 SU3       0.0237
     67 H14       -15.5421   -3.8872    6.6698 H           1 SU3       0.0237
     68 H15       -11.4428   -7.4109   11.5727 H           1 SU3       0.1839
     69 H16       -11.7755   -8.3730   13.5828 H           1 SU3       0.0312
     70 H17       -10.3955   -6.0065   15.0823 H           1 SU3       0.0279
     71 H18        -9.6823   -7.1499   13.8008 H           1 SU3       0.0279
     72 H19        -5.8108   -8.9887    5.8285 H           1 SU3       0.0373
     73 H20        -9.9480   -9.0324    5.8777 H           1 SU3       0.0361
     74 H21        -5.4128  -11.5853    4.7308 H           1 SU3       0.0557
     75 H22        -6.6052  -13.5588    3.9364 H           1 SU3       0.0599
     76 H23        -9.0168  -13.6295    3.9766 H           1 SU3       0.0557
     77 H24       -11.1781  -11.0311    5.5459 H           1 SU3       0.0426
     78 H25       -11.0929  -12.7394    5.1780 H           1 SU3       0.0426
     79 H26       -14.0271   -5.7686   12.7409 H           1 SU3       0.2148
     80 H27       -14.1001   -2.0714   15.1476 H           1 SU3       0.0559
     81 H28       -16.9446   -3.3962   15.2752 H           1 SU3       0.0285
     82 H29       -16.2445   -2.0635   16.3972 H           1 SU3       0.0285
     83 H30       -14.4165   -3.5838   17.0474 H           1 SU3       0.0285
     84 H31       -15.1427   -4.9113   15.9234 H           1 SU3       0.0285
     85 H32       -11.0352  -12.2434    2.7418 H           1 SU3       0.0287
     86 H33       -11.0501  -10.5091    3.0585 H           1 SU3       0.0287
     87 H34       -13.3019  -12.3700    3.9714 H           1 SU3       0.0267
     88 H35       -13.2491  -11.6583    2.3613 H           1 SU3       0.0267
     89 H36       -13.3047   -9.3873    3.2779 H           1 SU3       0.0271
     90 H37       -13.2664   -9.9942    4.9240 H           1 SU3       0.0271
     91 H38       -15.3717   -8.0477    3.5243 H           1 SU3       0.0617
     92 H39       -16.8033   -8.7119    4.2940 H           1 SU3       0.0617
     93 H40       -15.6189  -11.6331    2.3387 H           1 SU3       0.0236
     94 H41       -15.4237   -9.9637    1.7847 H           1 SU3       0.0236
     95 H42       -16.9167  -10.4727    2.5853 H           1 SU3       0.0236
     96 H43       -15.3133  -10.9542    6.0306 H           1 SU3       0.0236
     97 H44       -15.5220  -12.2101    4.8061 H           1 SU3       0.0236
     98 H45       -16.8405  -11.0927    5.1508 H           1 SU3       0.0236
     99 H46       -14.9543   -5.7406   10.5758 H           1 SU3       0.0237
    100 H47       -16.0721   -6.4905    9.4290 H           1 SU3       0.0237
    101 H48       -16.4426   -4.9172   10.1377 H           1 SU3       0.0237
    102 H49       -13.7164   -2.9941    8.2911 H           1 SU3       0.0237
    103 H50       -13.4527   -3.7831    9.8492 H           1 SU3       0.0237
    104 H51       -14.9377   -2.8711    9.5627 H           1 SU3       0.0237
    105 H52       -11.0381   -4.1136    7.5156 H           1 SU3       0.0553
    106 H53       -11.2621   -5.5701    6.5161 H           1 SU3       0.0553
@<TRIPOS>BOND
     1     1     3   2
     2     1     4   1
     3    21     1  am
     4     4     2   1
     5     2     7  am
     6     2    52   1
     7     4     5   1
     8     5     6   1
     9     6    52   1
    10     6    53   1
    11     7     8   2
    12     7     9   1
    13     9    10   1
    14     9    13   1
    15    10    11  am
    16    11    12   1
    17    11    14   2
    18    12    47   1
    19    13    20   1
    20    13    50   1
    21    13    51   1
    22    15    16   2
    23    15    17  am
    24    53    15   1
    25    17    26   1
    26    17    29   1
    27    18    19   1
    28    24    18   1
    29    22    21   1
    30    22    23   1
    31    22    24   1
    32    22    25   1
    33    23    35  am
    34    23    36   2
    35    24    25   1
    36    26    27   2
    37    27    28  ar
    38    27    30  ar
    39    28    29   2
    40    28    33  ar
    41    30    31  ar
    42    31    32  ar
    43    32    33  ar
    44    33    34   1
    45    34    43   1
    46    35    37  am
    47    37    38   1
    48    37    39   2
    49    37    40   2
    50    38    41   1
    51    38    42   1
    52    41    42   1
    53    43    44   1
    54    44    45   1
    55    45    46   1
    56    46    47   1
    57    46    48   1
    58    46    49   1
    59     4    54   1
    60     5    55   1
    61     5    56   1
    62     6    57   1
    63     9    58   1
    64    10    59   1
    65    18    60   1
    66    18    61   1
    67    19    62   1
    68    19    63   1
    69    19    64   1
    70    20    65   1
    71    20    66   1
    72    20    67   1
    73    21    68   1
    74    24    69   1
    75    25    70   1
    76    25    71   1
    77    26    72   1
    78    29    73   1
    79    30    74   1
    80    31    75   1
    81    32    76   1
    82    34    77   1
    83    34    78   1
    84    35    79   1
    85    38    80   1
    86    41    81   1
    87    41    82   1
    88    42    83   1
    89    42    84   1
    90    43    85   1
    91    43    86   1
    92    44    87   1
    93    44    88   1
    94    45    89   1
    95    45    90   1
    96    47    91   1
    97    47    92   1
    98    48    93   1
    99    48    94   1
   100    48    95   1
   101    49    96   1
   102    49    97   1
   103    49    98   1
   104    50    99   1
   105    50   100   1
   106    50   101   1
   107    51   102   1
   108    51   103   1
   109    51   104   1
   110    52   105   1
   111    52   106   1
@<TRIPOS>SUBSTRUCTURE
     1  SU3      1

