@<TRIPOS>MOLECULE
3su3_ligand_089
   106   111
SMALL
GAST_HUCK
****
This file was generated by PARSER (from files_GN.cpp)

@<TRIPOS>ATOM
      1 C         -11.5972  -14.8335   12.0378 C.2         1 SU3       0.2013
      2 N         -10.4191  -16.9517   12.4457 N.am        1 SU3      -0.2469
      3 O         -10.5680  -14.4225   11.5082 O.2         1 SU3      -0.3947
      4 CA        -11.5611  -16.1103   12.7473 C.3         1 SU3       0.1363
      5 CB        -11.4931  -15.8777   14.2780 C.3         1 SU3       0.0206
      6 CG        -10.6223  -17.0328   14.7954 C.3         1 SU3       0.1158
      7 CAF       -10.1665  -17.4585   11.2236 C.2         1 SU3       0.2070
      8 OAG       -11.0566  -17.3847   10.3807 O.2         1 SU3      -0.3942
      9 CAH        -8.9187  -18.1171   10.7873 C.3         1 SU3       0.1378
     10 NAI        -9.2127  -19.4857   10.4260 N.am        1 SU3      -0.2407
     11 CAJ        -8.5835  -20.5883   10.9040 C.2         1 SU3       0.3218
     12 OAK        -8.8252  -21.7805   10.2987 O.3         1 SU3      -0.2633
     13 CAL        -8.1191  -17.3615    9.6376 C.3         1 SU3       0.0025
     14 OAM        -7.6438  -20.4988   11.8734 O.2         1 SU3      -0.3774
     15 CAO       -12.2563  -18.5050   16.0249 C.2         1 SU3       0.4317
     16 OAP       -12.5216  -17.5591   16.9572 O.2         1 SU3      -0.3166
     17 NAQ       -12.8249  -19.7351   16.1074 N.am        1 SU3      -0.2080
     18 CAR       -11.5753  -11.4761    9.3279 C.3         1 SU3      -0.0516
     19 CAS       -10.2583  -11.0716   10.0247 C.3         1 SU3      -0.0651
     20 CAT        -7.5285  -16.0213   10.1959 C.3         1 SU3      -0.0558
     21 NAV       -12.7091  -14.1016   11.9980 N.am        1 SU3      -0.2737
     22 CAX       -12.8350  -12.8219   11.3538 C.3         1 SU3       0.1374
     23 CAY       -12.7227  -11.6268   12.1864 C.2         1 SU3       0.2444
     24 CAZ       -12.1831  -12.7695    9.9452 C.3         1 SU3      -0.0066
     25 CBA       -13.7151  -12.8569   10.0827 C.3         1 SU3      -0.0152
     26 CBB       -13.6857  -20.1505   17.0609 C.2         1 SU3       0.0383
     27 CBC       -14.0026  -21.4833   16.8317 C.ar        1 SU3      -0.0374
     28 CBD       -13.3282  -21.8793   15.6791 C.ar        1 SU3      -0.0293
     29 CBE       -12.6022  -20.7652   15.2579 C.2         1 SU3       0.0366
     30 CBF       -14.8171  -22.3776   17.5467 C.ar        1 SU3      -0.0689
     31 CBG       -14.9380  -23.6996   17.0697 C.ar        1 SU3      -0.0688
     32 CBH       -14.2624  -24.1018   15.8990 C.ar        1 SU3      -0.0606
     33 CBI       -13.4485  -23.1937   15.1731 C.ar        1 SU3      -0.0432
     34 CBJ       -12.7579  -23.6349   13.9318 C.3         1 SU3      -0.0194
     35 NBK       -13.2094  -10.4504   11.8155 N.am        1 SU3      -0.1552
     36 OBL       -12.1324  -11.7370   13.2559 O.2         1 SU3      -0.3404
     37 SBM       -12.9356   -8.9891   12.6139 S.o2        1 SU3       0.0645
     38 CBN       -13.4419   -8.9711   14.3535 C.3         1 SU3       0.1004
     39 OBO       -11.4089   -8.5739   12.4521 O.2         1 SU3      -0.1503
     40 OBP       -13.7242   -7.8758   11.7932 O.2         1 SU3      -0.1503
     41 CBQ       -13.7076   -7.6131   15.0125 C.3         1 SU3      -0.0268
     42 CBR       -14.8792   -8.5402   14.6725 C.3         1 SU3      -0.0268
     43 CBS       -11.4807  -24.4632   14.2374 C.3         1 SU3      -0.0433
     44 CBT       -10.7088  -24.9337   12.9747 C.3         1 SU3      -0.0507
     45 CBU        -9.8419  -23.8312   12.2968 C.3         1 SU3      -0.0453
     46 CBV        -9.1198  -24.2077   10.9484 C.3         1 SU3      -0.0072
     47 CBW        -8.1583  -23.0364   10.5387 C.3         1 SU3       0.0824
     48 CBX        -8.2595  -25.5055   11.1129 C.3         1 SU3      -0.0574
     49 CBY       -10.1524  -24.4289    9.7965 C.3         1 SU3      -0.0574
     50 CBZ        -6.9111  -18.2380    9.1530 C.3         1 SU3      -0.0558
     51 CCA        -8.9878  -17.0328    8.3746 C.3         1 SU3      -0.0558
     52 CD1        -9.6523  -17.2562   13.6231 C.3         1 SU3       0.0677
     53 OD2       -11.3710  -18.2369   15.0243 O.3         1 SU3      -0.2338
     54 H1        -12.4678  -16.6790   12.5158 H           1 SU3       0.0803
     55 H2        -12.4927  -15.8922   14.7215 H           1 SU3       0.0342
     56 H3        -11.0079  -14.9212   14.5316 H           1 SU3       0.0342
     57 H4        -10.0784  -16.7567   15.7045 H           1 SU3       0.0673
     58 H5         -8.2285  -18.1306   11.6327 H           1 SU3       0.0805
     59 H6         -9.8535  -19.6184    9.7111 H           1 SU3       0.1899
     60 H7        -11.3589  -11.6663    8.2671 H           1 SU3       0.0265
     61 H8        -12.2772  -10.6306    9.3740 H           1 SU3       0.0265
     62 H9         -9.7940  -10.2369    9.4914 H           1 SU3       0.0230
     63 H10        -9.5583  -11.9124   10.0369 H           1 SU3       0.0230
     64 H11       -10.4478  -10.7567   11.0540 H           1 SU3       0.0230
     65 H12        -6.9660  -15.4892    9.4274 H           1 SU3       0.0237
     66 H13        -6.8576  -16.2137   11.0351 H           1 SU3       0.0237
     67 H14        -8.3232  -15.3619   10.5441 H           1 SU3       0.0237
     68 H15       -13.4988  -14.4521   12.4495 H           1 SU3       0.1839
     69 H16       -11.7224  -13.7077    9.6037 H           1 SU3       0.0312
     70 H17       -14.2586  -11.9544    9.7832 H           1 SU3       0.0279
     71 H18       -14.1227  -13.8210    9.7704 H           1 SU3       0.0279
     72 H19       -14.0411  -19.5909   17.8405 H           1 SU3       0.0373
     73 H20       -11.9846  -20.7436   14.4433 H           1 SU3       0.0361
     74 H21       -15.3041  -22.0809   18.3941 H           1 SU3       0.0557
     75 H22       -15.5249  -24.3679   17.5754 H           1 SU3       0.0599
     76 H23       -14.3740  -25.0649   15.5723 H           1 SU3       0.0557
     77 H24       -12.4921  -22.7728   13.3203 H           1 SU3       0.0426
     78 H25       -13.4480  -24.2368   13.3335 H           1 SU3       0.0426
     79 H26       -13.7042  -10.4075   10.9809 H           1 SU3       0.2148
     80 H27       -13.0197   -9.7278   15.0202 H           1 SU3       0.0559
     81 H28       -13.6161   -6.7243   14.3822 H           1 SU3       0.0285
     82 H29       -13.4566   -7.5442   16.0725 H           1 SU3       0.0285
     83 H30       -15.3461   -9.0307   15.5286 H           1 SU3       0.0285
     84 H31       -15.5052   -8.2021   13.8423 H           1 SU3       0.0285
     85 H32       -11.7770  -25.3533   14.8028 H           1 SU3       0.0287
     86 H33       -10.8076  -23.8803   14.8786 H           1 SU3       0.0287
     87 H34       -11.4240  -25.3426   12.2617 H           1 SU3       0.0267
     88 H35       -10.0499  -25.7455   13.2841 H           1 SU3       0.0267
     89 H36        -9.0837  -23.5225   13.0262 H           1 SU3       0.0271
     90 H37       -10.4707  -22.9555   12.1129 H           1 SU3       0.0271
     91 H38        -7.3826  -22.9253   11.3017 H           1 SU3       0.0617
     92 H39        -7.6462  -23.2930    9.6087 H           1 SU3       0.0617
     93 H40        -8.8909  -26.3779   11.2882 H           1 SU3       0.0236
     94 H41        -7.5695  -25.4090   11.9540 H           1 SU3       0.0236
     95 H42        -7.6731  -25.7029   10.2132 H           1 SU3       0.0236
     96 H43       -10.8014  -23.5587    9.6844 H           1 SU3       0.0236
     97 H44       -10.7812  -25.2989    9.9906 H           1 SU3       0.0236
     98 H45        -9.6416  -24.5968    8.8464 H           1 SU3       0.0236
     99 H46        -7.2600  -19.1430    8.6529 H           1 SU3       0.0237
    100 H47        -6.2812  -18.5360    9.9930 H           1 SU3       0.0237
    101 H48        -6.2857  -17.6923    8.4427 H           1 SU3       0.0237
    102 H49        -9.7259  -16.2611    8.5870 H           1 SU3       0.0237
    103 H50        -9.5100  -17.9216    8.0207 H           1 SU3       0.0237
    104 H51        -8.3675  -16.6592    7.5567 H           1 SU3       0.0237
    105 H52        -8.7954  -16.5717   13.6958 H           1 SU3       0.0553
    106 H53        -9.2974  -18.2961   13.6490 H           1 SU3       0.0553
@<TRIPOS>BOND
     1     1     3   2
     2     1     4   1
     3    21     1  am
     4     4     2   1
     5     2     7  am
     6     2    52   1
     7     4     5   1
     8     5     6   1
     9     6    52   1
    10     6    53   1
    11     7     8   2
    12     7     9   1
    13     9    10   1
    14     9    13   1
    15    10    11  am
    16    11    12   1
    17    11    14   2
    18    12    47   1
    19    13    20   1
    20    13    50   1
    21    13    51   1
    22    15    16   2
    23    15    17  am
    24    53    15   1
    25    17    26   1
    26    17    29   1
    27    18    19   1
    28    24    18   1
    29    22    21   1
    30    22    23   1
    31    22    24   1
    32    22    25   1
    33    23    35  am
    34    23    36   2
    35    24    25   1
    36    26    27   2
    37    27    28  ar
    38    27    30  ar
    39    28    29   2
    40    28    33  ar
    41    30    31  ar
    42    31    32  ar
    43    32    33  ar
    44    33    34   1
    45    34    43   1
    46    35    37  am
    47    37    38   1
    48    37    39   2
    49    37    40   2
    50    38    41   1
    51    38    42   1
    52    41    42   1
    53    43    44   1
    54    44    45   1
    55    45    46   1
    56    46    47   1
    57    46    48   1
    58    46    49   1
    59     4    54   1
    60     5    55   1
    61     5    56   1
    62     6    57   1
    63     9    58   1
    64    10    59   1
    65    18    60   1
    66    18    61   1
    67    19    62   1
    68    19    63   1
    69    19    64   1
    70    20    65   1
    71    20    66   1
    72    20    67   1
    73    21    68   1
    74    24    69   1
    75    25    70   1
    76    25    71   1
    77    26    72   1
    78    29    73   1
    79    30    74   1
    80    31    75   1
    81    32    76   1
    82    34    77   1
    83    34    78   1
    84    35    79   1
    85    38    80   1
    86    41    81   1
    87    41    82   1
    88    42    83   1
    89    42    84   1
    90    43    85   1
    91    43    86   1
    92    44    87   1
    93    44    88   1
    94    45    89   1
    95    45    90   1
    96    47    91   1
    97    47    92   1
    98    48    93   1
    99    48    94   1
   100    48    95   1
   101    49    96   1
   102    49    97   1
   103    49    98   1
   104    50    99   1
   105    50   100   1
   106    50   101   1
   107    51   102   1
   108    51   103   1
   109    51   104   1
   110    52   105   1
   111    52   106   1
@<TRIPOS>SUBSTRUCTURE
     1  SU3      1

