@<TRIPOS>MOLECULE
3su3_ligand_064
   106   111
SMALL
GAST_HUCK
****
This file was generated by PARSER (from files_GN.cpp)

@<TRIPOS>ATOM
      1 C         -17.9359   -5.5933   12.5122 C.2         1 SU3       0.2013
      2 N         -16.0412   -4.7461   11.2589 N.am        1 SU3      -0.2469
      3 O         -18.6535   -4.6732   12.8827 O.2         1 SU3      -0.3947
      4 CA        -16.4800   -5.4116   12.4689 C.3         1 SU3       0.1363
      5 CB        -15.9016   -4.5666   13.6420 C.3         1 SU3       0.0206
      6 CG        -14.8088   -3.6980   12.9944 C.3         1 SU3       0.1158
      7 CAF       -16.2236   -5.2498   10.0212 C.2         1 SU3       0.2070
      8 OAG       -16.5365   -6.4287    9.9259 O.2         1 SU3      -0.3942
      9 CAH       -16.0541   -4.5208    8.7499 C.3         1 SU3       0.1378
     10 NAI       -14.9988   -5.1631    8.0135 N.am        1 SU3      -0.2407
     11 CAJ       -13.8960   -4.5625    7.5171 C.2         1 SU3       0.3218
     12 OAK       -13.1285   -5.2879    6.6611 O.3         1 SU3      -0.2633
     13 CAL       -17.3596   -4.3706    7.8574 C.3         1 SU3       0.0025
     14 OAM       -13.6195   -3.2587    7.7589 O.2         1 SU3      -0.3774
     15 CAO       -12.6785   -4.5433   14.0517 C.2         1 SU3       0.4317
     16 OAP       -13.0133   -4.0834   15.2823 O.2         1 SU3      -0.3166
     17 NAQ       -11.5029   -5.1863   13.8461 N.am        1 SU3      -0.2080
     18 CAR       -22.1513   -5.5856   11.1863 C.3         1 SU3      -0.0516
     19 CAS       -22.4941   -4.3066   10.3882 C.3         1 SU3      -0.0651
     20 CAT       -18.4277   -3.5413    8.6430 C.3         1 SU3      -0.0558
     21 NAV       -18.4885   -6.6979   12.0090 N.am        1 SU3      -0.2737
     22 CAX       -19.8973   -6.9524   11.9198 C.3         1 SU3       0.1374
     23 CAY       -20.5193   -7.4592   13.1222 C.2         1 SU3       0.2444
     24 CAZ       -20.6876   -6.0506   10.9314 C.3         1 SU3      -0.0066
     25 CBA       -20.4185   -7.5205   10.5766 C.3         1 SU3      -0.0152
     26 CBB       -10.5510   -5.4467   14.7735 C.2         1 SU3       0.0383
     27 CBC        -9.4876   -6.0903   14.1525 C.ar        1 SU3      -0.0374
     28 CBD        -9.8193   -6.2476   12.8096 C.ar        1 SU3      -0.0293
     29 CBE       -11.0787   -5.6674   12.6551 C.2         1 SU3       0.0366
     30 CBF        -8.2481   -6.5341   14.6499 C.ar        1 SU3      -0.0689
     31 CBG        -7.3504   -7.1534   13.7606 C.ar        1 SU3      -0.0688
     32 CBH        -7.6899   -7.3198   12.3993 C.ar        1 SU3      -0.0606
     33 CBI        -8.9392   -6.8693   11.8957 C.ar        1 SU3      -0.0432
     34 CBJ        -9.2727   -7.0331   10.4556 C.3         1 SU3      -0.0194
     35 NBK       -20.6396   -8.7645   13.2875 N.am        1 SU3      -0.1552
     36 OBL       -20.7664   -6.6639   14.0164 O.2         1 SU3      -0.3404
     37 SBM       -21.1782   -9.5366   14.6900 S.o2        1 SU3       0.0645
     38 CBN       -19.8661  -10.1769   15.7528 C.3         1 SU3       0.1004
     39 OBO       -22.1066   -8.5661   15.5440 O.2         1 SU3      -0.1503
     40 OBP       -22.1358  -10.7243   14.2496 O.2         1 SU3      -0.1503
     41 CBQ       -18.8679  -11.1568   15.1164 C.3         1 SU3      -0.0268
     42 CBR       -18.4153   -9.7394   15.4918 C.3         1 SU3      -0.0268
     43 CBS        -8.5648   -5.9672    9.5744 C.3         1 SU3      -0.0433
     44 CBT        -8.8799   -6.0860    8.0580 C.3         1 SU3      -0.0507
     45 CBU       -10.2694   -5.5121    7.6436 C.3         1 SU3      -0.0453
     46 CBV       -10.6962   -5.6687    6.1368 C.3         1 SU3      -0.0072
     47 CBW       -12.0037   -4.8389    5.8883 C.3         1 SU3       0.0824
     48 CBX        -9.5959   -5.1142    5.1719 C.3         1 SU3      -0.0574
     49 CBY       -10.9725   -7.1670    5.7852 C.3         1 SU3      -0.0574
     50 CBZ       -17.0420   -3.5625    6.5538 C.3         1 SU3      -0.0558
     51 CCA       -17.9854   -5.7395    7.4194 C.3         1 SU3      -0.0558
     52 CD1       -15.2936   -3.5557   11.5407 C.3         1 SU3       0.0677
     53 OD2       -13.5255   -4.3408   13.0041 O.3         1 SU3      -0.2338
     54 H1        -15.9987   -6.3945   12.5156 H           1 SU3       0.0803
     55 H2        -15.4897   -5.2056   14.4288 H           1 SU3       0.0342
     56 H3        -16.6459   -3.9071   14.0958 H           1 SU3       0.0342
     57 H4        -14.7244   -2.7149   13.4707 H           1 SU3       0.0673
     58 H5        -15.7536   -3.4974    8.9783 H           1 SU3       0.0805
     59 H6        -15.1349   -6.0939    7.7731 H           1 SU3       0.1899
     60 H7        -22.8553   -6.3725   10.9056 H           1 SU3       0.0265
     61 H8        -22.2954   -5.3706   12.2438 H           1 SU3       0.0265
     62 H9        -23.5401   -4.0387   10.5478 H           1 SU3       0.0230
     63 H10       -22.3371   -4.4700    9.3222 H           1 SU3       0.0230
     64 H11       -21.8688   -3.4776   10.7167 H           1 SU3       0.0230
     65 H12       -19.3788   -3.5084    8.1111 H           1 SU3       0.0237
     66 H13       -18.0913   -2.5146    8.7927 H           1 SU3       0.0237
     67 H14       -18.6109   -3.9767    9.6257 H           1 SU3       0.0237
     68 H15       -17.8928   -7.3877   11.6745 H           1 SU3       0.1839
     69 H16       -20.0662   -5.3900   10.3253 H           1 SU3       0.0312
     70 H17       -21.2711   -8.1970   10.6182 H           1 SU3       0.0279
     71 H18       -19.6555   -7.6932    9.8161 H           1 SU3       0.0279
     72 H19       -10.5861   -5.1929   15.7635 H           1 SU3       0.0373
     73 H20       -11.5894   -5.6030   11.7734 H           1 SU3       0.0361
     74 H21        -7.9986   -6.3964   15.6306 H           1 SU3       0.0557
     75 H22        -6.4421   -7.4803   14.1008 H           1 SU3       0.0599
     76 H23        -7.0166   -7.7685   11.7742 H           1 SU3       0.0557
     77 H24       -10.3502   -6.9664   10.3061 H           1 SU3       0.0426
     78 H25        -8.9806   -8.0356   10.1335 H           1 SU3       0.0426
     79 H26       -20.3614   -9.3388   12.5572 H           1 SU3       0.2148
     80 H27       -20.1142  -10.4066   16.7918 H           1 SU3       0.0559
     81 H28       -18.9640  -11.3453   14.0457 H           1 SU3       0.0285
     82 H29       -18.4993  -11.9520   15.7676 H           1 SU3       0.0285
     83 H30       -17.7812   -9.6662   16.3758 H           1 SU3       0.0285
     84 H31       -18.2244   -9.0797   14.6448 H           1 SU3       0.0285
     85 H32        -7.4833   -6.0771    9.7030 H           1 SU3       0.0287
     86 H33        -8.8337   -4.9650    9.9210 H           1 SU3       0.0287
     87 H34        -8.7980   -7.1327    7.7602 H           1 SU3       0.0267
     88 H35        -8.1056   -5.5299    7.5238 H           1 SU3       0.0267
     89 H36       -10.2625   -4.4479    7.8948 H           1 SU3       0.0271
     90 H37       -11.0360   -5.9769    8.2669 H           1 SU3       0.0271
     91 H38       -11.8060   -3.7792    6.0746 H           1 SU3       0.0617
     92 H39       -12.3015   -4.9255    4.8406 H           1 SU3       0.0617
     93 H40        -8.6903   -5.7207    5.2138 H           1 SU3       0.0236
     94 H41        -9.3334   -4.0873    5.4370 H           1 SU3       0.0236
     95 H42        -9.9448   -5.1194    4.1367 H           1 SU3       0.0236
     96 H43       -11.7075   -7.5979    6.4683 H           1 SU3       0.0236
     97 H44       -10.0607   -7.7623    5.8495 H           1 SU3       0.0236
     98 H45       -11.3587   -7.2612    4.7680 H           1 SU3       0.0236
     99 H46       -16.3714   -4.1186    5.8986 H           1 SU3       0.0237
    100 H47       -16.5681   -2.6088    6.7933 H           1 SU3       0.0237
    101 H48       -17.9533   -3.3497    5.9899 H           1 SU3       0.0237
    102 H49       -18.4126   -6.2715    8.2683 H           1 SU3       0.0237
    103 H50       -17.2339   -6.3803    6.9560 H           1 SU3       0.0237
    104 H51       -18.7917   -5.5943    6.6967 H           1 SU3       0.0237
    105 H52       -15.9393   -2.6818   11.4368 H           1 SU3       0.0553
    106 H53       -14.4264   -3.4337   10.8853 H           1 SU3       0.0553
@<TRIPOS>BOND
     1     1     3   2
     2     1     4   1
     3    21     1  am
     4     4     2   1
     5     2     7  am
     6     2    52   1
     7     4     5   1
     8     5     6   1
     9     6    52   1
    10     6    53   1
    11     7     8   2
    12     7     9   1
    13     9    10   1
    14     9    13   1
    15    10    11  am
    16    11    12   1
    17    11    14   2
    18    12    47   1
    19    13    20   1
    20    13    50   1
    21    13    51   1
    22    15    16   2
    23    15    17  am
    24    53    15   1
    25    17    26   1
    26    17    29   1
    27    18    19   1
    28    24    18   1
    29    22    21   1
    30    22    23   1
    31    22    24   1
    32    22    25   1
    33    23    35  am
    34    23    36   2
    35    24    25   1
    36    26    27   2
    37    27    28  ar
    38    27    30  ar
    39    28    29   2
    40    28    33  ar
    41    30    31  ar
    42    31    32  ar
    43    32    33  ar
    44    33    34   1
    45    34    43   1
    46    35    37  am
    47    37    38   1
    48    37    39   2
    49    37    40   2
    50    38    41   1
    51    38    42   1
    52    41    42   1
    53    43    44   1
    54    44    45   1
    55    45    46   1
    56    46    47   1
    57    46    48   1
    58    46    49   1
    59     4    54   1
    60     5    55   1
    61     5    56   1
    62     6    57   1
    63     9    58   1
    64    10    59   1
    65    18    60   1
    66    18    61   1
    67    19    62   1
    68    19    63   1
    69    19    64   1
    70    20    65   1
    71    20    66   1
    72    20    67   1
    73    21    68   1
    74    24    69   1
    75    25    70   1
    76    25    71   1
    77    26    72   1
    78    29    73   1
    79    30    74   1
    80    31    75   1
    81    32    76   1
    82    34    77   1
    83    34    78   1
    84    35    79   1
    85    38    80   1
    86    41    81   1
    87    41    82   1
    88    42    83   1
    89    42    84   1
    90    43    85   1
    91    43    86   1
    92    44    87   1
    93    44    88   1
    94    45    89   1
    95    45    90   1
    96    47    91   1
    97    47    92   1
    98    48    93   1
    99    48    94   1
   100    48    95   1
   101    49    96   1
   102    49    97   1
   103    49    98   1
   104    50    99   1
   105    50   100   1
   106    50   101   1
   107    51   102   1
   108    51   103   1
   109    51   104   1
   110    52   105   1
   111    52   106   1
@<TRIPOS>SUBSTRUCTURE
     1  SU3      1

