@<TRIPOS>MOLECULE
3su3_ligand_024
   106   111
SMALL
GAST_HUCK
****
This file was generated by PARSER (from files_GN.cpp)

@<TRIPOS>ATOM
      1 C          -9.7670   -5.6005    8.5127 C.2         1 SU3       0.2013
      2 N         -12.0925   -6.5303    8.5601 N.am        1 SU3      -0.2469
      3 O         -10.1830   -4.5965    7.9589 O.2         1 SU3      -0.3947
      4 CA        -10.6857   -6.6728    8.9132 C.3         1 SU3       0.1363
      5 CB        -10.2546   -8.0260    8.2836 C.3         1 SU3       0.0206
      6 CG        -11.5654   -8.8051    8.1253 C.3         1 SU3       0.1158
      7 CAF       -12.8736   -5.4899    8.9249 C.2         1 SU3       0.2070
      8 OAG       -12.4155   -4.6654    9.7075 O.2         1 SU3      -0.3942
      9 CAH       -14.2416   -5.2129    8.4450 C.3         1 SU3       0.1378
     10 NAI       -15.0983   -5.1572    9.5962 N.am        1 SU3      -0.2407
     11 CAJ       -16.2366   -5.8495    9.8089 C.2         1 SU3       0.3218
     12 OAK       -16.9449   -5.5207   10.9187 O.3         1 SU3      -0.2633
     13 CAL       -14.4029   -3.9118    7.5415 C.3         1 SU3       0.0025
     14 OAM       -16.6954   -6.7662    8.9253 O.2         1 SU3      -0.3774
     15 CAO       -11.4461  -10.6001    9.8971 C.2         1 SU3       0.4317
     16 OAP       -10.4946  -11.3067    9.2393 O.2         1 SU3      -0.3166
     17 NAQ       -11.9183  -11.0115   11.1015 N.am        1 SU3      -0.2080
     18 CAR        -6.4528   -2.4135    9.4585 C.3         1 SU3      -0.0516
     19 CAS        -6.4955   -1.6166   10.7810 C.3         1 SU3      -0.0651
     20 CAT       -15.7165   -4.0216    6.6906 C.3         1 SU3      -0.0558
     21 NAV        -8.4636   -5.7244    8.7360 N.am        1 SU3      -0.2737
     22 CAX        -7.4675   -4.7393    8.4369 C.3         1 SU3       0.1374
     23 CAY        -7.3405   -4.2806    7.0622 C.2         1 SU3       0.2444
     24 CAZ        -7.0370   -3.8461    9.6309 C.3         1 SU3      -0.0066
     25 CBA        -6.1445   -5.0088    9.1777 C.3         1 SU3      -0.0152
     26 CBB       -11.5555  -12.1325   11.7617 C.2         1 SU3       0.0383
     27 CBC       -12.2416  -12.1838   12.9692 C.ar        1 SU3      -0.0374
     28 CBD       -13.0513  -11.0504   13.0375 C.ar        1 SU3      -0.0293
     29 CBE       -12.8319  -10.3538   11.8521 C.2         1 SU3       0.0366
     30 CBF       -12.2141  -13.1262   14.0112 C.ar        1 SU3      -0.0689
     31 CBG       -13.0222  -12.8995   15.1415 C.ar        1 SU3      -0.0688
     32 CBH       -13.8458  -11.7543   15.2128 C.ar        1 SU3      -0.0606
     33 CBI       -13.8810  -10.8053   14.1598 C.ar        1 SU3      -0.0432
     34 CBJ       -14.7719   -9.6150   14.2556 C.3         1 SU3      -0.0194
     35 NBK        -6.5896   -4.9616    6.2120 N.am        1 SU3      -0.1552
     36 OBL        -8.0272   -3.3338    6.7052 O.2         1 SU3      -0.3404
     37 SBM        -6.4626   -4.6461    4.5577 S.o2        1 SU3       0.0645
     38 CBN        -7.6809   -5.4707    3.5052 C.3         1 SU3       0.1004
     39 OBO        -6.4612   -3.0807    4.2824 O.2         1 SU3      -0.1503
     40 OBP        -5.0032   -5.0863    4.1029 O.2         1 SU3      -0.1503
     41 CBQ        -7.4785   -6.9788    3.2978 C.3         1 SU3      -0.0268
     42 CBR        -8.6661   -6.4744    4.1228 C.3         1 SU3      -0.0268
     43 CBS       -16.2625   -9.9848   14.0234 C.3         1 SU3      -0.0433
     44 CBT       -17.2401   -8.7765   14.0789 C.3         1 SU3      -0.0507
     45 CBU       -17.2704   -7.9054   12.7862 C.3         1 SU3      -0.0453
     46 CBV       -18.1916   -6.6267   12.7928 C.3         1 SU3      -0.0072
     47 CBW       -18.2235   -6.0138   11.3492 C.3         1 SU3       0.0824
     48 CBX       -19.6618   -6.9866   13.1913 C.3         1 SU3      -0.0574
     49 CBY       -17.6511   -5.5492   13.7892 C.3         1 SU3      -0.0574
     50 CBZ       -14.4988   -2.5899    8.3785 C.3         1 SU3      -0.0558
     51 CCA       -13.2156   -3.7682    6.5276 C.3         1 SU3      -0.0558
     52 CD1       -12.5754   -7.6810    7.8416 C.3         1 SU3       0.0677
     53 OD2       -11.9386   -9.4599    9.3473 O.3         1 SU3      -0.2338
     54 H1        -10.6254   -6.7679   10.0029 H           1 SU3       0.0803
     55 H2         -9.5387   -8.5575    8.9179 H           1 SU3       0.0342
     56 H3         -9.8086   -7.8893    7.2914 H           1 SU3       0.0342
     57 H4        -11.5254   -9.5252    7.3002 H           1 SU3       0.0673
     58 H5        -14.5563   -6.0416    7.8151 H           1 SU3       0.0805
     59 H6        -14.8644   -4.5011   10.2699 H           1 SU3       0.1899
     60 H7         -5.4177   -2.4443    9.1074 H           1 SU3       0.0265
     61 H8         -7.0352   -1.8687    8.7150 H           1 SU3       0.0265
     62 H9         -6.0742   -0.6209   10.6306 H           1 SU3       0.0230
     63 H10        -5.9160   -2.1321   11.5495 H           1 SU3       0.0230
     64 H11        -7.5253   -1.5051   11.1298 H           1 SU3       0.0230
     65 H12       -15.8823   -3.1179    6.0959 H           1 SU3       0.0237
     66 H13       -16.5864   -4.1613    7.3349 H           1 SU3       0.0237
     67 H14       -15.6644   -4.8692    6.0010 H           1 SU3       0.0237
     68 H15        -8.1569   -6.5584    9.1285 H           1 SU3       0.1839
     69 H16        -7.5676   -4.0658   10.5620 H           1 SU3       0.0312
     70 H17        -5.2289   -4.7475    8.6455 H           1 SU3       0.0279
     71 H18        -6.1250   -5.8608    9.8587 H           1 SU3       0.0279
     72 H19       -10.8851  -12.8340   11.4364 H           1 SU3       0.0373
     73 H20       -13.2873   -9.4741   11.5955 H           1 SU3       0.0361
     74 H21       -11.6151  -13.9522   13.9554 H           1 SU3       0.0557
     75 H22       -13.0147  -13.5705   15.9132 H           1 SU3       0.0599
     76 H23       -14.4246  -11.6188   16.0458 H           1 SU3       0.0557
     77 H24       -14.4744   -8.8566   13.5316 H           1 SU3       0.0426
     78 H25       -14.6561   -9.1641   15.2457 H           1 SU3       0.0426
     79 H26        -6.0758   -5.7065    6.5600 H           1 SU3       0.2148
     80 H27        -8.0241   -4.9504    2.6092 H           1 SU3       0.0559
     81 H28        -6.6997   -7.4752    3.8808 H           1 SU3       0.0285
     82 H29        -7.7312   -7.3675    2.3084 H           1 SU3       0.0285
     83 H30        -9.6379   -6.5648    3.6330 H           1 SU3       0.0285
     84 H31        -8.5926   -6.6634    5.1952 H           1 SU3       0.0285
     85 H32       -16.5638  -10.6940   14.7995 H           1 SU3       0.0287
     86 H33       -16.3693  -10.4894   13.0595 H           1 SU3       0.0287
     87 H34       -16.9897   -8.1605   14.9438 H           1 SU3       0.0267
     88 H35       -18.2419   -9.1813   14.2437 H           1 SU3       0.0267
     89 H36       -17.5891   -8.5586   11.9691 H           1 SU3       0.0271
     90 H37       -16.2501   -7.5908   12.5590 H           1 SU3       0.0271
     91 H38       -18.6118   -6.7513   10.6423 H           1 SU3       0.0617
     92 H39       -18.9046   -5.1599   11.3249 H           1 SU3       0.0617
     93 H40       -19.7227   -7.3168   14.2308 H           1 SU3       0.0236
     94 H41       -20.0500   -7.7844   12.5540 H           1 SU3       0.0236
     95 H42       -20.3181   -6.1187   13.0876 H           1 SU3       0.0236
     96 H43       -16.6106   -5.3015   13.5699 H           1 SU3       0.0236
     97 H44       -17.7043   -5.9031   14.8200 H           1 SU3       0.0236
     98 H45       -18.2395   -4.6306   13.7222 H           1 SU3       0.0236
     99 H46       -13.6473   -2.4876    9.0503 H           1 SU3       0.0237
    100 H47       -15.4110   -2.5754    8.9800 H           1 SU3       0.0237
    101 H48       -14.5184   -1.7119    7.7266 H           1 SU3       0.0237
    102 H49       -13.0389   -4.7128    6.0049 H           1 SU3       0.0237
    103 H50       -12.2998   -3.4844    7.0476 H           1 SU3       0.0237
    104 H51       -13.4131   -2.9944    5.7794 H           1 SU3       0.0237
    105 H52       -12.6176   -7.4591    6.7708 H           1 SU3       0.0553
    106 H53       -13.5624   -8.0157    8.1778 H           1 SU3       0.0553
@<TRIPOS>BOND
     1     1     3   2
     2     1     4   1
     3    21     1  am
     4     4     2   1
     5     2     7  am
     6     2    52   1
     7     4     5   1
     8     5     6   1
     9     6    52   1
    10     6    53   1
    11     7     8   2
    12     7     9   1
    13     9    10   1
    14     9    13   1
    15    10    11  am
    16    11    12   1
    17    11    14   2
    18    12    47   1
    19    13    20   1
    20    13    50   1
    21    13    51   1
    22    15    16   2
    23    15    17  am
    24    53    15   1
    25    17    26   1
    26    17    29   1
    27    18    19   1
    28    24    18   1
    29    22    21   1
    30    22    23   1
    31    22    24   1
    32    22    25   1
    33    23    35  am
    34    23    36   2
    35    24    25   1
    36    26    27   2
    37    27    28  ar
    38    27    30  ar
    39    28    29   2
    40    28    33  ar
    41    30    31  ar
    42    31    32  ar
    43    32    33  ar
    44    33    34   1
    45    34    43   1
    46    35    37  am
    47    37    38   1
    48    37    39   2
    49    37    40   2
    50    38    41   1
    51    38    42   1
    52    41    42   1
    53    43    44   1
    54    44    45   1
    55    45    46   1
    56    46    47   1
    57    46    48   1
    58    46    49   1
    59     4    54   1
    60     5    55   1
    61     5    56   1
    62     6    57   1
    63     9    58   1
    64    10    59   1
    65    18    60   1
    66    18    61   1
    67    19    62   1
    68    19    63   1
    69    19    64   1
    70    20    65   1
    71    20    66   1
    72    20    67   1
    73    21    68   1
    74    24    69   1
    75    25    70   1
    76    25    71   1
    77    26    72   1
    78    29    73   1
    79    30    74   1
    80    31    75   1
    81    32    76   1
    82    34    77   1
    83    34    78   1
    84    35    79   1
    85    38    80   1
    86    41    81   1
    87    41    82   1
    88    42    83   1
    89    42    84   1
    90    43    85   1
    91    43    86   1
    92    44    87   1
    93    44    88   1
    94    45    89   1
    95    45    90   1
    96    47    91   1
    97    47    92   1
    98    48    93   1
    99    48    94   1
   100    48    95   1
   101    49    96   1
   102    49    97   1
   103    49    98   1
   104    50    99   1
   105    50   100   1
   106    50   101   1
   107    51   102   1
   108    51   103   1
   109    51   104   1
   110    52   105   1
   111    52   106   1
@<TRIPOS>SUBSTRUCTURE
     1  SU3      1

