@<TRIPOS>MOLECULE
3su3_ligand_014
   106   111
SMALL
GAST_HUCK
****
This file was generated by PARSER (from files_GN.cpp)

@<TRIPOS>ATOM
      1 C         -12.4751   -8.2626   11.7000 C.2         1 SU3       0.2013
      2 N         -14.0707  -10.1186   12.0050 N.am        1 SU3      -0.2469
      3 O         -13.2237   -7.6094   10.9794 O.2         1 SU3      -0.3947
      4 CA        -12.6928   -9.7062   11.8064 C.3         1 SU3       0.1363
      5 CB        -12.2348  -10.4382   10.5189 C.3         1 SU3       0.0206
      6 CG        -13.1780  -11.6436   10.4303 C.3         1 SU3       0.1158
      7 CAF       -14.8548   -9.6512   13.0037 C.2         1 SU3       0.2070
      8 OAG       -14.3223   -8.9458   13.8500 O.2         1 SU3      -0.3942
      9 CAH       -16.2879   -9.9313   13.2095 C.3         1 SU3       0.1378
     10 NAI       -16.4041  -10.5233   14.5191 N.am        1 SU3      -0.2407
     11 CAJ       -17.0150  -11.6954   14.8192 C.2         1 SU3       0.3218
     12 OAK       -17.1438  -12.0307   16.1330 O.3         1 SU3      -0.2633
     13 CAL       -17.2791   -8.7003   12.9764 C.3         1 SU3       0.0025
     14 OAM       -17.5662  -12.4781   13.8604 O.2         1 SU3      -0.3774
     15 CAO       -11.7090  -13.6013   11.0517 C.2         1 SU3       0.4317
     16 OAP       -10.9995  -13.5481    9.8997 O.2         1 SU3      -0.3166
     17 NAQ       -11.4017  -14.4926   12.0246 N.am        1 SU3      -0.2080
     18 CAR        -8.7793   -4.8686   12.2240 C.3         1 SU3      -0.0516
     19 CAS        -7.5438   -4.7414   11.3042 C.3         1 SU3      -0.0651
     20 CAT       -17.6409   -8.6030   11.4541 C.3         1 SU3      -0.0558
     21 NAV       -11.4782   -7.6823   12.3521 N.am        1 SU3      -0.2737
     22 CAX       -11.1347   -6.2848   12.3151 C.3         1 SU3       0.1374
     23 CAY       -11.5321   -5.4681   13.4537 C.2         1 SU3       0.2444
     24 CAZ        -9.6986   -6.0400   11.7816 C.3         1 SU3      -0.0066
     25 CBA       -10.9091   -5.6663   10.9109 C.3         1 SU3      -0.0152
     26 CBB       -10.4163  -15.4160   11.9771 C.2         1 SU3       0.0383
     27 CBC       -10.3938  -16.1034   13.1862 C.ar        1 SU3      -0.0374
     28 CBD       -11.4048  -15.5776   13.9862 C.ar        1 SU3      -0.0293
     29 CBE       -12.0142  -14.5831   13.2280 C.2         1 SU3       0.0366
     30 CBF        -9.5624  -17.1389   13.6401 C.ar        1 SU3      -0.0689
     31 CBG        -9.7702  -17.6416   14.9411 C.ar        1 SU3      -0.0688
     32 CBH       -10.7985  -17.1160   15.7530 C.ar        1 SU3      -0.0606
     33 CBI       -11.6360  -16.0673   15.2975 C.ar        1 SU3      -0.0432
     34 CBJ       -12.6915  -15.5045   16.1840 C.3         1 SU3      -0.0194
     35 NBK       -11.4684   -6.0028   14.6634 N.am        1 SU3      -0.1552
     36 OBL       -11.9050   -4.3123   13.2918 O.2         1 SU3      -0.3404
     37 SBM       -11.8080   -5.2188   16.1195 S.o2        1 SU3       0.0645
     38 CBN       -13.4281   -4.4223   16.2375 C.3         1 SU3       0.1004
     39 OBO       -11.7086   -6.3201   17.2635 O.2         1 SU3      -0.1503
     40 OBP       -10.6499   -4.1761   16.4434 O.2         1 SU3      -0.1503
     41 CBQ       -14.6185   -5.1935   15.6411 C.3         1 SU3      -0.0268
     42 CBR       -14.5231   -4.9928   17.1531 C.3         1 SU3      -0.0268
     43 CBS       -13.9156  -16.4481   16.3279 C.3         1 SU3      -0.0433
     44 CBT       -15.0293  -15.8972   17.2653 C.3         1 SU3      -0.0507
     45 CBU       -15.9136  -14.7801   16.6337 C.3         1 SU3      -0.0453
     46 CBV       -17.0063  -14.1191   17.5567 C.3         1 SU3      -0.0072
     47 CBW       -17.8741  -13.1350   16.6917 C.3         1 SU3       0.0824
     48 CBX       -17.9692  -15.2000   18.1497 C.3         1 SU3      -0.0574
     49 CBY       -16.3473  -13.3219   18.7305 C.3         1 SU3      -0.0574
     50 CBZ       -18.6195   -8.9061   13.7674 C.3         1 SU3      -0.0558
     51 CCA       -16.7104   -7.3084   13.4172 C.3         1 SU3      -0.0558
     52 CD1       -14.4793  -11.0806   11.0231 C.3         1 SU3       0.0677
     53 OD2       -12.7284  -12.7251   11.2563 O.3         1 SU3      -0.2338
     54 H1        -12.1102  -10.1002   12.6473 H           1 SU3       0.0803
     55 H2        -11.1842  -10.7452   10.5753 H           1 SU3       0.0342
     56 H3        -12.3739   -9.8143    9.6313 H           1 SU3       0.0342
     57 H4        -13.3223  -11.9849    9.4015 H           1 SU3       0.0673
     58 H5        -16.6002  -10.6909   12.4957 H           1 SU3       0.0805
     59 H6        -16.0742  -10.0011   15.2655 H           1 SU3       0.1899
     60 H7         -9.3069   -3.9133   12.2284 H           1 SU3       0.0265
     61 H8         -8.4426   -5.0689   13.2428 H           1 SU3       0.0265
     62 H9         -6.9382   -3.8869   11.6132 H           1 SU3       0.0230
     63 H10        -7.8482   -4.5920   10.2644 H           1 SU3       0.0230
     64 H11        -6.9309   -5.6422   11.3659 H           1 SU3       0.0230
     65 H12       -18.3030   -7.7566   11.2571 H           1 SU3       0.0237
     66 H13       -18.1511   -9.5082   11.1191 H           1 SU3       0.0237
     67 H14       -16.7400   -8.4763   10.8491 H           1 SU3       0.0237
     68 H15       -10.9309   -8.2449   12.9262 H           1 SU3       0.1839
     69 H16        -9.1890   -6.9569   11.4622 H           1 SU3       0.0312
     70 H17       -11.1200   -4.6018   10.7993 H           1 SU3       0.0279
     71 H18       -11.0349   -6.3097   10.0408 H           1 SU3       0.0279
     72 H19        -9.7794  -15.5835   11.1955 H           1 SU3       0.0373
     73 H20       -12.7988  -14.0037   13.5382 H           1 SU3       0.0361
     74 H21        -8.8254  -17.5187   13.0441 H           1 SU3       0.0557
     75 H22        -9.1695  -18.3895   15.2954 H           1 SU3       0.0599
     76 H23       -10.9242  -17.5001   16.6942 H           1 SU3       0.0557
     77 H24       -13.0273  -14.5391   15.8063 H           1 SU3       0.0426
     78 H25       -12.2635  -15.3155   17.1703 H           1 SU3       0.0426
     79 H26       -11.1758   -6.9232   14.7283 H           1 SU3       0.2148
     80 H27       -13.4774   -3.3535   16.0274 H           1 SU3       0.0559
     81 H28       -14.4068   -6.2014   15.2801 H           1 SU3       0.0285
     82 H29       -15.3721   -4.5888   15.1349 H           1 SU3       0.0285
     83 H30       -15.2196   -4.2633   17.5619 H           1 SU3       0.0285
     84 H31       -14.3208   -5.9042   17.7102 H           1 SU3       0.0285
     85 H32       -13.5707  -17.4008   16.7400 H           1 SU3       0.0287
     86 H33       -14.3395  -16.6513   15.3401 H           1 SU3       0.0287
     87 H34       -14.5651  -15.5365   18.1834 H           1 SU3       0.0267
     88 H35       -15.6707  -16.7399   17.5285 H           1 SU3       0.0267
     89 H36       -16.4084  -15.2138   15.7601 H           1 SU3       0.0271
     90 H37       -15.2590  -13.9881   16.2627 H           1 SU3       0.0271
     91 H38       -18.3774  -13.7012   15.9018 H           1 SU3       0.0617
     92 H39       -18.6605  -12.6989   17.3142 H           1 SU3       0.0617
     93 H40       -17.4462  -15.8606   18.8420 H           1 SU3       0.0236
     94 H41       -18.3999  -15.8112   17.3541 H           1 SU3       0.0236
     95 H42       -18.7883  -14.7330   18.7005 H           1 SU3       0.0236
     96 H43       -15.5993  -12.6236   18.3527 H           1 SU3       0.0236
     97 H44       -15.8552  -13.9903   19.4385 H           1 SU3       0.0236
     98 H45       -17.0976  -12.7529   19.2831 H           1 SU3       0.0236
     99 H46       -18.4442   -8.8763   14.8443 H           1 SU3       0.0237
    100 H47       -19.0706   -9.8681   13.5222 H           1 SU3       0.0237
    101 H48       -19.3418   -8.1225   13.5305 H           1 SU3       0.0237
    102 H49       -15.8302   -7.0342   12.8282 H           1 SU3       0.0237
    103 H50       -16.4400   -7.3294   14.4744 H           1 SU3       0.0237
    104 H51       -17.4498   -6.5137   13.2766 H           1 SU3       0.0237
    105 H52       -15.0741  -10.5856   10.2501 H           1 SU3       0.0553
    106 H53       -15.0507  -11.9137   11.4436 H           1 SU3       0.0553
@<TRIPOS>BOND
     1     1     3   2
     2     1     4   1
     3    21     1  am
     4     4     2   1
     5     2     7  am
     6     2    52   1
     7     4     5   1
     8     5     6   1
     9     6    52   1
    10     6    53   1
    11     7     8   2
    12     7     9   1
    13     9    10   1
    14     9    13   1
    15    10    11  am
    16    11    12   1
    17    11    14   2
    18    12    47   1
    19    13    20   1
    20    13    50   1
    21    13    51   1
    22    15    16   2
    23    15    17  am
    24    53    15   1
    25    17    26   1
    26    17    29   1
    27    18    19   1
    28    24    18   1
    29    22    21   1
    30    22    23   1
    31    22    24   1
    32    22    25   1
    33    23    35  am
    34    23    36   2
    35    24    25   1
    36    26    27   2
    37    27    28  ar
    38    27    30  ar
    39    28    29   2
    40    28    33  ar
    41    30    31  ar
    42    31    32  ar
    43    32    33  ar
    44    33    34   1
    45    34    43   1
    46    35    37  am
    47    37    38   1
    48    37    39   2
    49    37    40   2
    50    38    41   1
    51    38    42   1
    52    41    42   1
    53    43    44   1
    54    44    45   1
    55    45    46   1
    56    46    47   1
    57    46    48   1
    58    46    49   1
    59     4    54   1
    60     5    55   1
    61     5    56   1
    62     6    57   1
    63     9    58   1
    64    10    59   1
    65    18    60   1
    66    18    61   1
    67    19    62   1
    68    19    63   1
    69    19    64   1
    70    20    65   1
    71    20    66   1
    72    20    67   1
    73    21    68   1
    74    24    69   1
    75    25    70   1
    76    25    71   1
    77    26    72   1
    78    29    73   1
    79    30    74   1
    80    31    75   1
    81    32    76   1
    82    34    77   1
    83    34    78   1
    84    35    79   1
    85    38    80   1
    86    41    81   1
    87    41    82   1
    88    42    83   1
    89    42    84   1
    90    43    85   1
    91    43    86   1
    92    44    87   1
    93    44    88   1
    94    45    89   1
    95    45    90   1
    96    47    91   1
    97    47    92   1
    98    48    93   1
    99    48    94   1
   100    48    95   1
   101    49    96   1
   102    49    97   1
   103    49    98   1
   104    50    99   1
   105    50   100   1
   106    50   101   1
   107    51   102   1
   108    51   103   1
   109    51   104   1
   110    52   105   1
   111    52   106   1
@<TRIPOS>SUBSTRUCTURE
     1  SU3      1

