@<TRIPOS>MOLECULE
3su3_ligand_060
   106   111
SMALL
GAST_HUCK
****
This file was generated by PARSER (from files_GN.cpp)

@<TRIPOS>ATOM
      1 C         -12.2412   -8.2046   11.1156 C.2         1 SU3       0.2013
      2 N         -12.4521  -10.5820   10.6019 N.am        1 SU3      -0.2469
      3 O         -11.6944   -7.5489   11.9925 O.2         1 SU3      -0.3947
      4 CA        -11.5908   -9.4170   10.6176 C.3         1 SU3       0.1363
      5 CB        -11.1108   -9.2343    9.1533 C.3         1 SU3       0.0206
      6 CG        -11.2992  -10.6270    8.5356 C.3         1 SU3       0.1158
      7 CAF       -13.0538  -11.0828   11.6996 C.2         1 SU3       0.2070
      8 OAG       -12.6973  -10.6526   12.7910 O.2         1 SU3      -0.3942
      9 CAH       -14.1166  -12.1041   11.7185 C.3         1 SU3       0.1378
     10 NAI       -13.6240  -13.2508   12.4377 N.am        1 SU3      -0.2407
     11 CAJ       -13.5980  -14.5294   11.9939 C.2         1 SU3       0.3218
     12 OAK       -13.2628  -15.4970   12.8888 O.3         1 SU3      -0.2633
     13 CAL       -15.5200  -11.6202   12.2845 C.3         1 SU3       0.0025
     14 OAM       -13.9915  -14.8579   10.7405 O.2         1 SU3      -0.3774
     15 CAO        -8.9140  -11.4425    8.3186 C.2         1 SU3       0.4317
     16 OAP        -8.5694  -10.4840    7.4242 O.2         1 SU3      -0.3166
     17 NAQ        -8.0072  -12.3563    8.7462 N.am        1 SU3      -0.2080
     18 CAR       -13.9846   -3.9421   10.5248 C.3         1 SU3      -0.0516
     19 CAS       -14.2083   -2.9570    9.3580 C.3         1 SU3      -0.0651
     20 CAT       -15.4828  -11.2140   13.7977 C.3         1 SU3      -0.0558
     21 NAV       -13.4020   -7.8266   10.5948 N.am        1 SU3      -0.2737
     22 CAX       -14.1229   -6.6320   10.9078 C.3         1 SU3       0.1374
     23 CAY       -14.6698   -6.4848   12.2452 C.2         1 SU3       0.2444
     24 CAZ       -13.8122   -5.4001   10.0206 C.3         1 SU3      -0.0066
     25 CBA       -15.0860   -6.2185    9.7701 C.3         1 SU3      -0.0152
     26 CBB        -6.7039  -12.4272    8.3870 C.2         1 SU3       0.0383
     27 CBC        -6.1097  -13.4859    9.0649 C.ar        1 SU3      -0.0374
     28 CBD        -7.0916  -14.0764    9.8578 C.ar        1 SU3      -0.0293
     29 CBE        -8.2587  -13.3518    9.6277 C.2         1 SU3       0.0366
     30 CBF        -4.7900  -13.9688    9.0593 C.ar        1 SU3      -0.0689
     31 CBG        -4.4764  -15.0734    9.8763 C.ar        1 SU3      -0.0688
     32 CBH        -5.4696  -15.6745   10.6792 C.ar        1 SU3      -0.0606
     33 CBI        -6.8002  -15.1815   10.6913 C.ar        1 SU3      -0.0432
     34 CBJ        -7.8253  -15.7994   11.5752 C.3         1 SU3      -0.0194
     35 NBK       -13.9891   -5.7904   13.1385 N.am        1 SU3      -0.1552
     36 OBL       -15.7269   -7.0380   12.5184 O.2         1 SU3      -0.3404
     37 SBM       -14.4988   -5.4449   14.7103 S.o2        1 SU3       0.0645
     38 CBN       -13.1259   -5.1006   15.8358 C.3         1 SU3       0.1004
     39 OBO       -15.4782   -4.1925   14.7052 O.2         1 SU3      -0.1503
     40 OBP       -15.2613   -6.6843   15.3525 O.2         1 SU3      -0.1503
     41 CBQ       -11.8510   -5.9417   15.6795 C.3         1 SU3      -0.0268
     42 CBR       -11.8495   -4.4614   15.2716 C.3         1 SU3      -0.0268
     43 CBS        -8.4173  -17.1091   10.9910 C.3         1 SU3      -0.0433
     44 CBT        -9.4646  -17.7904   11.9173 C.3         1 SU3      -0.0507
     45 CBU       -10.8609  -17.0943   11.9424 C.3         1 SU3      -0.0453
     46 CBV       -11.9160  -17.6263   12.9816 C.3         1 SU3      -0.0072
     47 CBW       -13.2935  -16.9244   12.7115 C.3         1 SU3       0.0824
     48 CBX       -12.1271  -19.1690   12.8306 C.3         1 SU3      -0.0574
     49 CBY       -11.4707  -17.3163   14.4487 C.3         1 SU3      -0.0574
     50 CBZ       -16.0407  -10.3999   11.4552 C.3         1 SU3      -0.0558
     51 CCA       -16.5739  -12.7708   12.1278 C.3         1 SU3      -0.0558
     52 CD1       -12.5301  -11.1616    9.2908 C.3         1 SU3       0.0677
     53 OD2       -10.1842  -11.4897    8.8033 O.3         1 SU3      -0.2338
     54 H1        -10.7128   -9.6552   11.2321 H           1 SU3       0.0803
     55 H2        -10.0724   -8.8947    9.1097 H           1 SU3       0.0342
     56 H3        -11.7290   -8.5215    8.5967 H           1 SU3       0.0342
     57 H4        -11.4856  -10.5799    7.4591 H           1 SU3       0.0673
     58 H5        -14.3216  -12.4006   10.6897 H           1 SU3       0.0805
     59 H6        -13.3571  -13.1077   13.3594 H           1 SU3       0.1899
     60 H7        -14.8263   -3.8598   11.2176 H           1 SU3       0.0265
     61 H8        -13.0778   -3.6551   11.0617 H           1 SU3       0.0265
     62 H9        -14.2894   -1.9381    9.7443 H           1 SU3       0.0230
     63 H10       -15.1287   -3.2038    8.8248 H           1 SU3       0.0230
     64 H11       -13.3698   -3.0017    8.6607 H           1 SU3       0.0230
     65 H12       -16.4883  -11.0003   14.1678 H           1 SU3       0.0237
     66 H13       -14.8860  -10.3161   13.9578 H           1 SU3       0.0237
     67 H14       -15.0666  -12.0178   14.4073 H           1 SU3       0.0237
     68 H15       -13.7719   -8.3890    9.8964 H           1 SU3       0.1839
     69 H16       -13.0261   -5.5712    9.2799 H           1 SU3       0.0312
     70 H17       -16.0233   -5.7285   10.0431 H           1 SU3       0.0279
     71 H18       -15.0654   -6.8082    8.8512 H           1 SU3       0.0279
     72 H19        -6.2199  -11.8020    7.7383 H           1 SU3       0.0373
     73 H20        -9.1614  -13.5396   10.0683 H           1 SU3       0.0361
     74 H21        -4.0729  -13.5274    8.4788 H           1 SU3       0.0557
     75 H22        -3.5208  -15.4373    9.8910 H           1 SU3       0.0599
     76 H23        -5.2123  -16.4687   11.2703 H           1 SU3       0.0557
     77 H24        -8.6373  -15.0953   11.7521 H           1 SU3       0.0426
     78 H25        -7.3769  -16.0012   12.5512 H           1 SU3       0.0426
     79 H26       -13.1494   -5.3979   12.8530 H           1 SU3       0.2148
     80 H27       -13.3638   -4.8290   16.8664 H           1 SU3       0.0559
     81 H28       -11.8167   -6.6533   14.8518 H           1 SU3       0.0285
     82 H29       -11.3071   -6.1683   16.5989 H           1 SU3       0.0285
     83 H30       -11.3011   -3.8017   15.9444 H           1 SU3       0.0285
     84 H31       -11.8129   -4.2721   14.1976 H           1 SU3       0.0285
     85 H32        -7.5987  -17.8161   10.8285 H           1 SU3       0.0287
     86 H33        -8.8737  -16.9028   10.0188 H           1 SU3       0.0287
     87 H34        -9.0515  -17.8484   12.9258 H           1 SU3       0.0267
     88 H35        -9.5978  -18.8140   11.5597 H           1 SU3       0.0267
     89 H36       -11.2805  -17.1845   10.9362 H           1 SU3       0.0271
     90 H37       -10.7180  -16.0291   12.1271 H           1 SU3       0.0271
     91 H38       -13.6455  -17.1812   11.7078 H           1 SU3       0.0617
     92 H39       -14.0425  -17.3020   13.4126 H           1 SU3       0.0617
     93 H40       -11.2236  -19.7198   13.0979 H           1 SU3       0.0236
     94 H41       -12.3911  -19.4236   11.8014 H           1 SU3       0.0236
     95 H42       -12.9299  -19.5195   13.4841 H           1 SU3       0.0236
     96 H43       -11.2531  -16.2537   14.5759 H           1 SU3       0.0236
     97 H44       -10.5758  -17.8793   14.7182 H           1 SU3       0.0236
     98 H45       -12.2561  -17.5886   15.1572 H           1 SU3       0.0236
     99 H46       -16.1188  -10.6522   10.3951 H           1 SU3       0.0237
    100 H47       -15.3630   -9.5534   11.5511 H           1 SU3       0.0237
    101 H48       -17.0263  -10.0784   11.8019 H           1 SU3       0.0237
    102 H49       -16.3082  -13.6330   12.7422 H           1 SU3       0.0237
    103 H50       -16.6394  -13.1014   11.0883 H           1 SU3       0.0237
    104 H51       -17.5693  -12.4398   12.4357 H           1 SU3       0.0237
    105 H52       -13.4566  -10.8436    8.8030 H           1 SU3       0.0553
    106 H53       -12.4886  -12.2557    9.3098 H           1 SU3       0.0553
@<TRIPOS>BOND
     1     1     3   2
     2     1     4   1
     3    21     1  am
     4     4     2   1
     5     2     7  am
     6     2    52   1
     7     4     5   1
     8     5     6   1
     9     6    52   1
    10     6    53   1
    11     7     8   2
    12     7     9   1
    13     9    10   1
    14     9    13   1
    15    10    11  am
    16    11    12   1
    17    11    14   2
    18    12    47   1
    19    13    20   1
    20    13    50   1
    21    13    51   1
    22    15    16   2
    23    15    17  am
    24    53    15   1
    25    17    26   1
    26    17    29   1
    27    18    19   1
    28    24    18   1
    29    22    21   1
    30    22    23   1
    31    22    24   1
    32    22    25   1
    33    23    35  am
    34    23    36   2
    35    24    25   1
    36    26    27   2
    37    27    28  ar
    38    27    30  ar
    39    28    29   2
    40    28    33  ar
    41    30    31  ar
    42    31    32  ar
    43    32    33  ar
    44    33    34   1
    45    34    43   1
    46    35    37  am
    47    37    38   1
    48    37    39   2
    49    37    40   2
    50    38    41   1
    51    38    42   1
    52    41    42   1
    53    43    44   1
    54    44    45   1
    55    45    46   1
    56    46    47   1
    57    46    48   1
    58    46    49   1
    59     4    54   1
    60     5    55   1
    61     5    56   1
    62     6    57   1
    63     9    58   1
    64    10    59   1
    65    18    60   1
    66    18    61   1
    67    19    62   1
    68    19    63   1
    69    19    64   1
    70    20    65   1
    71    20    66   1
    72    20    67   1
    73    21    68   1
    74    24    69   1
    75    25    70   1
    76    25    71   1
    77    26    72   1
    78    29    73   1
    79    30    74   1
    80    31    75   1
    81    32    76   1
    82    34    77   1
    83    34    78   1
    84    35    79   1
    85    38    80   1
    86    41    81   1
    87    41    82   1
    88    42    83   1
    89    42    84   1
    90    43    85   1
    91    43    86   1
    92    44    87   1
    93    44    88   1
    94    45    89   1
    95    45    90   1
    96    47    91   1
    97    47    92   1
    98    48    93   1
    99    48    94   1
   100    48    95   1
   101    49    96   1
   102    49    97   1
   103    49    98   1
   104    50    99   1
   105    50   100   1
   106    50   101   1
   107    51   102   1
   108    51   103   1
   109    51   104   1
   110    52   105   1
   111    52   106   1
@<TRIPOS>SUBSTRUCTURE
     1  SU3      1

