@<TRIPOS>MOLECULE
3su3_ligand_039
   106   111
SMALL
GAST_HUCK
****
This file was generated by PARSER (from files_GN.cpp)

@<TRIPOS>ATOM
      1 C         -14.1754   -4.7503   11.5413 C.2         1 SU3       0.2013
      2 N         -12.4618   -4.9254    9.8633 N.am        1 SU3      -0.2469
      3 O         -14.4679   -5.9389   11.6456 O.2         1 SU3      -0.3947
      4 CA        -13.6772   -4.2550   10.2571 C.3         1 SU3       0.1363
      5 CB        -14.6777   -4.4816    9.0943 C.3         1 SU3       0.0206
      6 CG        -13.7748   -4.8374    7.9014 C.3         1 SU3       0.1158
      7 CAF       -11.3485   -4.9310   10.6207 C.2         1 SU3       0.2070
      8 OAG       -11.2829   -4.1449   11.5581 O.2         1 SU3      -0.3942
      9 CAH       -10.1960   -5.8239   10.4529 C.3         1 SU3       0.1378
     10 NAI        -9.0547   -4.9903   10.1767 N.am        1 SU3      -0.2407
     11 CAJ        -8.2842   -5.0185    9.0649 C.2         1 SU3       0.3218
     12 OAK        -7.1953   -4.2068    9.0380 O.3         1 SU3      -0.2633
     13 CAL        -9.9457   -6.8243   11.6632 C.3         1 SU3       0.0025
     14 OAM        -8.5314   -5.8747    8.0451 O.2         1 SU3      -0.3774
     15 CAO       -13.9869   -2.8174    6.4047 C.2         1 SU3       0.4317
     16 OAP       -15.2913   -3.0656    6.1302 O.2         1 SU3      -0.3166
     17 NAQ       -13.3574   -1.7376    5.8759 N.am        1 SU3      -0.2080
     18 CAR       -13.3869   -5.3702   16.1547 C.3         1 SU3      -0.0516
     19 CAS       -12.0496   -5.3275   16.9263 C.3         1 SU3      -0.0651
     20 CAT        -8.7725   -7.7885   11.2811 C.3         1 SU3      -0.0558
     21 NAV       -14.2061   -3.9521   12.6027 N.am        1 SU3      -0.2737
     22 CAX       -14.6012   -4.3297   13.9396 C.3         1 SU3       0.1374
     23 CAY       -15.8847   -5.0140   14.0970 C.2         1 SU3       0.2444
     24 CAZ       -13.4172   -4.3895   14.9493 C.3         1 SU3      -0.0066
     25 CBA       -14.3881   -3.2008   14.9762 C.3         1 SU3      -0.0152
     26 CBB       -13.9058   -0.8191    5.0501 C.2         1 SU3       0.0383
     27 CBC       -12.9396    0.1278    4.7306 C.ar        1 SU3      -0.0374
     28 CBD       -11.7685   -0.2284    5.3978 C.ar        1 SU3      -0.0293
     29 CBE       -12.0653   -1.3982    6.0917 C.2         1 SU3       0.0366
     30 CBF       -12.9953    1.2627    3.9069 C.ar        1 SU3      -0.0689
     31 CBG       -11.8317    2.0428    3.7608 C.ar        1 SU3      -0.0688
     32 CBH       -10.6436    1.6882    4.4381 C.ar        1 SU3      -0.0606
     33 CBI       -10.5892    0.5468    5.2784 C.ar        1 SU3      -0.0432
     34 CBJ        -9.3301    0.1963    5.9906 C.3         1 SU3      -0.0194
     35 NBK       -16.8698   -4.6761   13.2776 N.am        1 SU3      -0.1552
     36 OBL       -15.9790   -5.9707   14.8479 O.2         1 SU3      -0.3404
     37 SBM       -18.2827   -5.5382   12.9688 S.o2        1 SU3       0.0645
     38 CBN       -18.8205   -6.6588   14.2786 C.3         1 SU3       0.1004
     39 OBO       -19.4692   -4.4899   12.8223 O.2         1 SU3      -0.1503
     40 OBP       -18.1533   -6.3118   11.5866 O.2         1 SU3      -0.1503
     41 CBQ       -19.7387   -7.8223   13.8910 C.3         1 SU3      -0.0268
     42 CBR       -18.2796   -8.0948   14.2820 C.3         1 SU3      -0.0268
     43 CBS        -8.3019   -0.4978    5.0571 C.3         1 SU3      -0.0433
     44 CBT        -6.9954   -0.9415    5.7749 C.3         1 SU3      -0.0507
     45 CBU        -7.1207   -2.2725    6.5779 C.3         1 SU3      -0.0453
     46 CBV        -5.8979   -2.6985    7.4746 C.3         1 SU3      -0.0072
     47 CBW        -6.1503   -4.1379    8.0509 C.3         1 SU3       0.0824
     48 CBX        -4.5829   -2.7381    6.6285 C.3         1 SU3      -0.0574
     49 CBY        -5.6993   -1.7114    8.6708 C.3         1 SU3      -0.0574
     50 CBZ        -9.5595   -6.1212   13.0107 C.3         1 SU3      -0.0558
     51 CCA       -11.2213   -7.6997   11.9150 C.3         1 SU3      -0.0558
     52 CD1       -12.5821   -5.5422    8.5750 C.3         1 SU3       0.0677
     53 OD2       -13.3011   -3.6659    7.2184 O.3         1 SU3      -0.2338
     54 H1        -13.4651   -3.1801   10.3140 H           1 SU3       0.0803
     55 H2        -15.2829   -3.5924    8.9025 H           1 SU3       0.0342
     56 H3        -15.3527   -5.3238    9.2781 H           1 SU3       0.0342
     57 H4        -14.2711   -5.5034    7.1882 H           1 SU3       0.0673
     58 H5        -10.3817   -6.4655    9.5897 H           1 SU3       0.0805
     59 H6         -8.8000   -4.3611   10.8702 H           1 SU3       0.1899
     60 H7        -14.1964   -5.1478   16.8501 H           1 SU3       0.0265
     61 H8        -13.5283   -6.3857   15.7854 H           1 SU3       0.0265
     62 H9        -12.1059   -5.9879   17.7934 H           1 SU3       0.0230
     63 H10       -11.8370   -4.3168   17.2726 H           1 SU3       0.0230
     64 H11       -11.2317   -5.6653   16.2904 H           1 SU3       0.0230
     65 H12        -8.5926   -8.5276   12.0649 H           1 SU3       0.0237
     66 H13        -7.8462   -7.2298   11.1323 H           1 SU3       0.0237
     67 H14        -9.0005   -8.3281   10.3589 H           1 SU3       0.0237
     68 H15       -13.8771   -3.0444   12.4813 H           1 SU3       0.1839
     69 H16       -12.4532   -4.1343   14.5048 H           1 SU3       0.0312
     70 H17       -15.0743   -3.1595   15.8253 H           1 SU3       0.0279
     71 H18       -13.9982   -2.2575   14.5912 H           1 SU3       0.0279
     72 H19       -14.8688   -0.8119    4.7050 H           1 SU3       0.0373
     73 H20       -11.4037   -1.9212    6.6688 H           1 SU3       0.0361
     74 H21       -13.8575    1.5133    3.4188 H           1 SU3       0.0557
     75 H22       -11.8487    2.8711    3.1611 H           1 SU3       0.0599
     76 H23        -9.8150    2.2765    4.3160 H           1 SU3       0.0557
     77 H24        -9.5467   -0.4536    6.8379 H           1 SU3       0.0426
     78 H25        -8.8896    1.1069    6.4057 H           1 SU3       0.0426
     79 H26       -16.7061   -3.9299   12.6885 H           1 SU3       0.2148
     80 H27       -19.0247   -6.2347   15.2598 H           1 SU3       0.0559
     81 H28       -19.9628   -7.9652   12.8346 H           1 SU3       0.0285
     82 H29       -20.4913   -8.1049   14.6288 H           1 SU3       0.0285
     83 H30       -18.1222   -8.5459   15.2652 H           1 SU3       0.0285
     84 H31       -17.6227   -8.3821   13.4588 H           1 SU3       0.0285
     85 H32        -8.0308    0.2058    4.2645 H           1 SU3       0.0287
     86 H33        -8.7647   -1.3661    4.5796 H           1 SU3       0.0287
     87 H34        -6.6629   -0.1328    6.4275 H           1 SU3       0.0267
     88 H35        -6.2315   -1.0779    5.0054 H           1 SU3       0.0267
     89 H36        -7.3183   -3.0672    5.8520 H           1 SU3       0.0271
     90 H37        -8.0007   -2.2067    7.2156 H           1 SU3       0.0271
     91 H38        -6.3378   -4.8396    7.2333 H           1 SU3       0.0617
     92 H39        -5.2499   -4.4857    8.5618 H           1 SU3       0.0617
     93 H40        -4.3032   -1.7410    6.2860 H           1 SU3       0.0236
     94 H41        -4.7085   -3.3772    5.7521 H           1 SU3       0.0236
     95 H42        -3.7490   -3.1256    7.2186 H           1 SU3       0.0236
     96 H43        -6.6235   -1.6025    9.2424 H           1 SU3       0.0236
     97 H44        -5.3974   -0.7226    8.3252 H           1 SU3       0.0236
     98 H45        -4.9224   -2.0764    9.3469 H           1 SU3       0.0236
     99 H46       -10.3909   -5.5447   13.4166 H           1 SU3       0.0237
    100 H47        -8.7104   -5.4494   12.8727 H           1 SU3       0.0237
    101 H48        -9.2842   -6.8597   13.7683 H           1 SU3       0.0237
    102 H49       -11.5345   -8.2037   10.9974 H           1 SU3       0.0237
    103 H50       -12.0517   -7.0845   12.2657 H           1 SU3       0.0237
    104 H51       -11.0327   -8.4633   12.6739 H           1 SU3       0.0237
    105 H52       -12.7814   -6.6106    8.6957 H           1 SU3       0.0553
    106 H53       -11.6866   -5.4076    7.9598 H           1 SU3       0.0553
@<TRIPOS>BOND
     1     1     3   2
     2     1     4   1
     3    21     1  am
     4     4     2   1
     5     2     7  am
     6     2    52   1
     7     4     5   1
     8     5     6   1
     9     6    52   1
    10     6    53   1
    11     7     8   2
    12     7     9   1
    13     9    10   1
    14     9    13   1
    15    10    11  am
    16    11    12   1
    17    11    14   2
    18    12    47   1
    19    13    20   1
    20    13    50   1
    21    13    51   1
    22    15    16   2
    23    15    17  am
    24    53    15   1
    25    17    26   1
    26    17    29   1
    27    18    19   1
    28    24    18   1
    29    22    21   1
    30    22    23   1
    31    22    24   1
    32    22    25   1
    33    23    35  am
    34    23    36   2
    35    24    25   1
    36    26    27   2
    37    27    28  ar
    38    27    30  ar
    39    28    29   2
    40    28    33  ar
    41    30    31  ar
    42    31    32  ar
    43    32    33  ar
    44    33    34   1
    45    34    43   1
    46    35    37  am
    47    37    38   1
    48    37    39   2
    49    37    40   2
    50    38    41   1
    51    38    42   1
    52    41    42   1
    53    43    44   1
    54    44    45   1
    55    45    46   1
    56    46    47   1
    57    46    48   1
    58    46    49   1
    59     4    54   1
    60     5    55   1
    61     5    56   1
    62     6    57   1
    63     9    58   1
    64    10    59   1
    65    18    60   1
    66    18    61   1
    67    19    62   1
    68    19    63   1
    69    19    64   1
    70    20    65   1
    71    20    66   1
    72    20    67   1
    73    21    68   1
    74    24    69   1
    75    25    70   1
    76    25    71   1
    77    26    72   1
    78    29    73   1
    79    30    74   1
    80    31    75   1
    81    32    76   1
    82    34    77   1
    83    34    78   1
    84    35    79   1
    85    38    80   1
    86    41    81   1
    87    41    82   1
    88    42    83   1
    89    42    84   1
    90    43    85   1
    91    43    86   1
    92    44    87   1
    93    44    88   1
    94    45    89   1
    95    45    90   1
    96    47    91   1
    97    47    92   1
    98    48    93   1
    99    48    94   1
   100    48    95   1
   101    49    96   1
   102    49    97   1
   103    49    98   1
   104    50    99   1
   105    50   100   1
   106    50   101   1
   107    51   102   1
   108    51   103   1
   109    51   104   1
   110    52   105   1
   111    52   106   1
@<TRIPOS>SUBSTRUCTURE
     1  SU3      1

