@<TRIPOS>MOLECULE
3su3_ligand_085
   106   111
SMALL
GAST_HUCK
****
This file was generated by PARSER (from files_GN.cpp)

@<TRIPOS>ATOM
      1 C         -13.7129   -9.9169   14.0532 C.2         1 SU3       0.2013
      2 N         -15.2899  -11.7380   13.7779 N.am        1 SU3      -0.2469
      3 O         -13.2594  -10.0470   12.9223 O.2         1 SU3      -0.3947
      4 CA        -14.3569  -11.0792   14.6722 C.3         1 SU3       0.1363
      5 CB        -13.3234  -12.1706   15.0661 C.3         1 SU3       0.0206
      6 CG        -14.0196  -13.4970   14.7205 C.3         1 SU3       0.1158
      7 CAF       -16.3686  -11.1330   13.2441 C.2         1 SU3       0.2070
      8 OAG       -16.7239  -10.0654   13.7323 O.2         1 SU3      -0.3942
      9 CAH       -17.1487  -11.6184   12.0911 C.3         1 SU3       0.1378
     10 NAI       -18.4634  -11.9370   12.5742 N.am        1 SU3      -0.2407
     11 CAJ       -19.1226  -13.1056   12.4248 C.2         1 SU3       0.3218
     12 OAK       -20.4291  -13.1000   12.7888 O.3         1 SU3      -0.2633
     13 CAL       -17.2218  -10.6496   10.8307 C.3         1 SU3       0.0025
     14 OAM       -18.5573  -14.1846   11.8335 O.2         1 SU3      -0.3774
     15 CAO       -14.4917  -14.5730   16.9580 C.2         1 SU3       0.4317
     16 OAP       -13.1827  -14.8039   17.2198 O.2         1 SU3      -0.3166
     17 NAQ       -15.4526  -14.9569   17.8367 N.am        1 SU3      -0.2080
     18 CAR       -11.3689   -5.5742   15.0765 C.3         1 SU3      -0.0516
     19 CAS       -11.6555   -5.0272   16.4889 C.3         1 SU3      -0.0651
     20 CAT       -17.7190  -11.4462    9.5745 C.3         1 SU3      -0.0558
     21 NAV       -13.6214   -8.7519   14.6852 N.am        1 SU3      -0.2737
     22 CAX       -13.0716   -7.5435   14.1360 C.3         1 SU3       0.1374
     23 CAY       -14.0109   -6.5363   13.6839 C.2         1 SU3       0.2444
     24 CAZ       -11.8219   -7.0521   14.9201 C.3         1 SU3      -0.0066
     25 CBA       -11.6700   -7.5794   13.4873 C.3         1 SU3      -0.0152
     26 CBB       -15.2520  -15.5612   19.0295 C.2         1 SU3       0.0383
     27 CBC       -16.4866  -15.8211   19.6112 C.ar        1 SU3      -0.0374
     28 CBD       -17.4696  -15.3483   18.7428 C.ar        1 SU3      -0.0293
     29 CBE       -16.7859  -14.8141   17.6513 C.2         1 SU3       0.0366
     30 CBF       -16.8207  -16.4524   20.8199 C.ar        1 SU3      -0.0689
     31 CBG       -18.1836  -16.6089   21.1388 C.ar        1 SU3      -0.0688
     32 CBH       -19.1832  -16.1339   20.2612 C.ar        1 SU3      -0.0606
     33 CBI       -18.8459  -15.4860   19.0439 C.ar        1 SU3      -0.0432
     34 CBJ       -19.9173  -15.0029   18.1301 C.3         1 SU3      -0.0194
     35 NBK       -14.6752   -5.8148   14.5736 N.am        1 SU3      -0.1552
     36 OBL       -14.1752   -6.3981   12.4780 O.2         1 SU3      -0.3404
     37 SBM       -15.7771   -4.5872   14.2114 S.o2        1 SU3       0.0645
     38 CBN       -17.4556   -5.0790   13.7606 C.3         1 SU3       0.1004
     39 OBO       -15.8812   -3.6673   15.5042 O.2         1 SU3      -0.1503
     40 OBP       -15.1778   -3.6056   13.1123 O.2         1 SU3      -0.1503
     41 CBQ       -17.6087   -6.3492   12.9186 C.3         1 SU3      -0.0268
     42 CBR       -18.0536   -6.3472   14.3868 C.3         1 SU3      -0.0268
     43 CBS       -20.5388  -16.1584   17.2984 C.3         1 SU3      -0.0433
     44 CBT       -21.6362  -15.7050   16.2954 C.3         1 SU3      -0.0507
     45 CBU       -21.0894  -15.0720   14.9791 C.3         1 SU3      -0.0453
     46 CBV       -22.1452  -14.5138   13.9529 C.3         1 SU3      -0.0072
     47 CBW       -21.4114  -14.1316   12.6207 C.3         1 SU3       0.0824
     48 CBX       -23.2242  -15.5897   13.5978 C.3         1 SU3      -0.0574
     49 CBY       -22.8640  -13.2462   14.5225 C.3         1 SU3      -0.0574
     50 CBZ       -18.2131   -9.4541   11.0251 C.3         1 SU3      -0.0558
     51 CCA       -15.8043  -10.0769   10.4882 C.3         1 SU3      -0.0558
     52 CD1       -14.9167  -13.1023   13.5337 C.3         1 SU3       0.0677
     53 OD2       -14.8506  -13.9785   15.7881 O.3         1 SU3      -0.2338
     54 H1        -14.8980  -10.7772   15.5766 H           1 SU3       0.0803
     55 H2        -13.0621  -12.1117   16.1253 H           1 SU3       0.0342
     56 H3        -12.4002  -12.1014   14.4809 H           1 SU3       0.0342
     57 H4        -13.3058  -14.2735   14.4265 H           1 SU3       0.0673
     58 H5        -16.6731  -12.5281   11.7279 H           1 SU3       0.0805
     59 H6        -18.9634  -11.2118   12.9850 H           1 SU3       0.1899
     60 H7        -10.2922   -5.5196   14.8986 H           1 SU3       0.0265
     61 H8        -11.8605   -4.9305   14.3427 H           1 SU3       0.0265
     62 H9        -11.3319   -3.9874   16.5478 H           1 SU3       0.0230
     63 H10       -11.1103   -5.6039   17.2392 H           1 SU3       0.0230
     64 H11       -12.7231   -5.0745   16.7107 H           1 SU3       0.0230
     65 H12       -17.7753  -10.7991    8.6949 H           1 SU3       0.0237
     66 H13       -18.7138  -11.8626    9.7454 H           1 SU3       0.0237
     67 H14       -17.0420  -12.2701    9.3390 H           1 SU3       0.0237
     68 H15       -13.9513   -8.7108   15.5970 H           1 SU3       0.1839
     69 H16       -11.4021   -7.7585   15.6420 H           1 SU3       0.0312
     70 H17       -11.4649   -6.8393   12.7120 H           1 SU3       0.0279
     71 H18       -11.2169   -8.5659   13.3871 H           1 SU3       0.0279
     72 H19       -14.3494  -15.8110   19.4415 H           1 SU3       0.0373
     73 H20       -17.2297  -14.4001   16.8285 H           1 SU3       0.0361
     74 H21       -16.0921  -16.8021   21.4460 H           1 SU3       0.0557
     75 H22       -18.4494  -17.0742   22.0094 H           1 SU3       0.0599
     76 H23       -20.1646  -16.2646   20.5176 H           1 SU3       0.0557
     77 H24       -19.5225  -14.2430   17.4551 H           1 SU3       0.0426
     78 H25       -20.6991  -14.5171   18.7214 H           1 SU3       0.0426
     79 H26       -14.5021   -5.9885   15.5103 H           1 SU3       0.2148
     80 H27       -18.1731   -4.2953   13.5156 H           1 SU3       0.0559
     81 H28       -16.7182   -6.9447   12.7204 H           1 SU3       0.0285
     82 H29       -18.4194   -6.3430   12.1880 H           1 SU3       0.0285
     83 H30       -19.1357   -6.3619   14.5291 H           1 SU3       0.0285
     84 H31       -17.4200   -6.9338   15.0528 H           1 SU3       0.0285
     85 H32       -20.9916  -16.8731   17.9918 H           1 SU3       0.0287
     86 H33       -19.7501  -16.6858   16.7544 H           1 SU3       0.0287
     87 H34       -22.3094  -15.0087   16.7996 H           1 SU3       0.0267
     88 H35       -22.2182  -16.5917   16.0318 H           1 SU3       0.0267
     89 H36       -20.4893  -15.8389   14.4807 H           1 SU3       0.0271
     90 H37       -20.4070  -14.2615   15.2443 H           1 SU3       0.0271
     91 H38       -20.9620  -15.0227   12.1729 H           1 SU3       0.0617
     92 H39       -22.1362  -13.7436   11.8999 H           1 SU3       0.0617
     93 H40       -23.8487  -15.8248   14.4611 H           1 SU3       0.0236
     94 H41       -22.7496  -16.5119   13.2558 H           1 SU3       0.0236
     95 H42       -23.8849  -15.2324   12.8045 H           1 SU3       0.0236
     96 H43       -22.1385  -12.4846   14.8162 H           1 SU3       0.0236
     97 H44       -23.4674  -13.4933   15.3970 H           1 SU3       0.0236
     98 H45       -23.5301  -12.8087   13.7752 H           1 SU3       0.0236
     99 H46       -17.9633   -8.8833   11.9112 H           1 SU3       0.0237
    100 H47       -19.2414   -9.8071   11.1329 H           1 SU3       0.0237
    101 H48       -18.1843   -8.7750   10.1701 H           1 SU3       0.0237
    102 H49       -15.0864  -10.8874   10.3447 H           1 SU3       0.0237
    103 H50       -15.4391   -9.4335   11.2913 H           1 SU3       0.0237
    104 H51       -15.8293   -9.4798    9.5745 H           1 SU3       0.0237
    105 H52       -14.3600  -13.1697   12.5940 H           1 SU3       0.0553
    106 H53       -15.7791  -13.7748   13.4904 H           1 SU3       0.0553
@<TRIPOS>BOND
     1     1     3   2
     2     1     4   1
     3    21     1  am
     4     4     2   1
     5     2     7  am
     6     2    52   1
     7     4     5   1
     8     5     6   1
     9     6    52   1
    10     6    53   1
    11     7     8   2
    12     7     9   1
    13     9    10   1
    14     9    13   1
    15    10    11  am
    16    11    12   1
    17    11    14   2
    18    12    47   1
    19    13    20   1
    20    13    50   1
    21    13    51   1
    22    15    16   2
    23    15    17  am
    24    53    15   1
    25    17    26   1
    26    17    29   1
    27    18    19   1
    28    24    18   1
    29    22    21   1
    30    22    23   1
    31    22    24   1
    32    22    25   1
    33    23    35  am
    34    23    36   2
    35    24    25   1
    36    26    27   2
    37    27    28  ar
    38    27    30  ar
    39    28    29   2
    40    28    33  ar
    41    30    31  ar
    42    31    32  ar
    43    32    33  ar
    44    33    34   1
    45    34    43   1
    46    35    37  am
    47    37    38   1
    48    37    39   2
    49    37    40   2
    50    38    41   1
    51    38    42   1
    52    41    42   1
    53    43    44   1
    54    44    45   1
    55    45    46   1
    56    46    47   1
    57    46    48   1
    58    46    49   1
    59     4    54   1
    60     5    55   1
    61     5    56   1
    62     6    57   1
    63     9    58   1
    64    10    59   1
    65    18    60   1
    66    18    61   1
    67    19    62   1
    68    19    63   1
    69    19    64   1
    70    20    65   1
    71    20    66   1
    72    20    67   1
    73    21    68   1
    74    24    69   1
    75    25    70   1
    76    25    71   1
    77    26    72   1
    78    29    73   1
    79    30    74   1
    80    31    75   1
    81    32    76   1
    82    34    77   1
    83    34    78   1
    84    35    79   1
    85    38    80   1
    86    41    81   1
    87    41    82   1
    88    42    83   1
    89    42    84   1
    90    43    85   1
    91    43    86   1
    92    44    87   1
    93    44    88   1
    94    45    89   1
    95    45    90   1
    96    47    91   1
    97    47    92   1
    98    48    93   1
    99    48    94   1
   100    48    95   1
   101    49    96   1
   102    49    97   1
   103    49    98   1
   104    50    99   1
   105    50   100   1
   106    50   101   1
   107    51   102   1
   108    51   103   1
   109    51   104   1
   110    52   105   1
   111    52   106   1
@<TRIPOS>SUBSTRUCTURE
     1  SU3      1

