@<TRIPOS>MOLECULE
3su3_ligand_027
   106   111
SMALL
GAST_HUCK
****
This file was generated by PARSER (from files_GN.cpp)

@<TRIPOS>ATOM
      1 C         -11.5840   -6.6263    9.7227 C.2         1 SU3       0.2013
      2 N         -13.9324   -6.4720    9.2755 N.am        1 SU3      -0.2469
      3 O         -11.2348   -5.5115    9.3464 O.2         1 SU3      -0.3947
      4 CA        -12.7353   -7.2547    9.0705 C.3         1 SU3       0.1363
      5 CB        -12.5714   -7.3799    7.5311 C.3         1 SU3       0.0206
      6 CG        -13.9304   -6.9316    6.9669 C.3         1 SU3       0.1158
      7 CAF       -14.4672   -6.2589   10.4905 C.2         1 SU3       0.2070
      8 OAG       -14.1158   -6.9902   11.4126 O.2         1 SU3      -0.3942
      9 CAH       -15.3744   -5.1630   10.8495 C.3         1 SU3       0.1378
     10 NAI       -16.5553   -5.7948   11.3718 N.am        1 SU3      -0.2407
     11 CAJ       -17.8280   -5.6350   10.9534 C.2         1 SU3       0.3218
     12 OAK       -18.7923   -6.2239   11.7072 O.3         1 SU3      -0.2633
     13 CAL       -14.7655   -4.0393   11.8279 C.3         1 SU3       0.0025
     14 OAM       -18.1446   -4.8625    9.8865 O.2         1 SU3      -0.3774
     15 CAO       -14.8691   -9.0440    5.9578 C.2         1 SU3       0.4317
     16 OAP       -13.9450   -9.0761    4.9679 O.2         1 SU3      -0.3166
     17 NAQ       -15.8184  -10.0068    6.0555 N.am        1 SU3      -0.2080
     18 CAR        -7.6915   -7.6613   12.8025 C.3         1 SU3      -0.0516
     19 CAS        -6.3033   -8.1532   12.3387 C.3         1 SU3      -0.0651
     20 CAT       -13.2450   -4.2324   12.1530 C.3         1 SU3      -0.0558
     21 NAV       -10.9969   -7.2003   10.7639 N.am        1 SU3      -0.2737
     22 CAX        -9.9078   -6.6523   11.5167 C.3         1 SU3       0.1374
     23 CAY       -10.2277   -5.8911   12.7131 C.2         1 SU3       0.2444
     24 CAZ        -8.6978   -7.6185   11.6189 C.3         1 SU3      -0.0066
     25 CBA        -8.6088   -6.3670   10.7337 C.3         1 SU3      -0.0152
     26 CBB       -15.9885  -11.0536    5.2169 C.2         1 SU3       0.0383
     27 CBC       -17.0738  -11.8059    5.6516 C.ar        1 SU3      -0.0374
     28 CBD       -17.5677  -11.1967    6.8053 C.ar        1 SU3      -0.0293
     29 CBE       -16.7657  -10.0794    7.0202 C.2         1 SU3       0.0366
     30 CBF       -17.6697  -12.9634    5.1249 C.ar        1 SU3      -0.0689
     31 CBG       -18.7891  -13.5027    5.7884 C.ar        1 SU3      -0.0688
     32 CBH       -19.2896  -12.8914    6.9592 C.ar        1 SU3      -0.0606
     33 CBI       -18.6844  -11.7270    7.4968 C.ar        1 SU3      -0.0432
     34 CBJ       -19.2293  -11.0954    8.7310 C.3         1 SU3      -0.0194
     35 NBK       -10.7527   -6.5213   13.7518 N.am        1 SU3      -0.1552
     36 OBL       -10.0514   -4.6840   12.7123 O.2         1 SU3      -0.3404
     37 SBM       -11.1609   -5.7922   15.2212 S.o2        1 SU3       0.0645
     38 CBN       -11.9384   -7.0023   16.3218 C.3         1 SU3       0.1004
     39 OBO        -9.8136   -5.3277   15.9267 O.2         1 SU3      -0.1503
     40 OBP       -12.1050   -4.5256   15.0535 O.2         1 SU3      -0.1503
     41 CBQ       -12.8617   -6.5052   17.4461 C.3         1 SU3      -0.0268
     42 CBR       -13.4584   -7.1988   16.2106 C.3         1 SU3      -0.0268
     43 CBS       -20.5037  -10.2586    8.4381 C.3         1 SU3      -0.0433
     44 CBT       -21.1148   -9.5642    9.6889 C.3         1 SU3      -0.0507
     45 CBU       -20.3936   -8.2522   10.1215 C.3         1 SU3      -0.0453
     46 CBV       -20.9088   -7.5425   11.4322 C.3         1 SU3      -0.0072
     47 CBW       -20.2163   -6.1403   11.5617 C.3         1 SU3       0.0824
     48 CBX       -22.4532   -7.3005   11.3834 C.3         1 SU3      -0.0574
     49 CBY       -20.5699   -8.3936   12.7000 C.3         1 SU3      -0.0574
     50 CBZ       -14.8794   -2.6264   11.1596 C.3         1 SU3      -0.0558
     51 CCA       -15.5094   -3.9659   13.2077 C.3         1 SU3      -0.0558
     52 CD1       -14.4469   -5.9572    8.0426 C.3         1 SU3       0.0677
     53 OD2       -14.8501   -8.0282    6.8611 O.3         1 SU3      -0.2338
     54 H1        -12.9067   -8.2635    9.4705 H           1 SU3       0.0803
     55 H2        -12.3272   -8.4062    7.2389 H           1 SU3       0.0342
     56 H3        -11.7906   -6.7198    7.1387 H           1 SU3       0.0342
     57 H4        -13.8316   -6.4271    6.0013 H           1 SU3       0.0673
     58 H5        -15.6572   -4.6550    9.9281 H           1 SU3       0.0805
     59 H6        -16.4322   -6.3527   12.1592 H           1 SU3       0.1899
     60 H7         -7.5818   -6.6810   13.2704 H           1 SU3       0.0265
     61 H8         -8.0754   -8.3495   13.5563 H           1 SU3       0.0265
     62 H9         -5.6264   -8.2085   13.1935 H           1 SU3       0.0230
     63 H10        -5.8790   -7.4669   11.6040 H           1 SU3       0.0230
     64 H11        -6.3842   -9.1446   11.8916 H           1 SU3       0.0230
     65 H12       -12.8597   -3.4175   12.7733 H           1 SU3       0.0237
     66 H13       -12.6492   -4.2666   11.2403 H           1 SU3       0.0237
     67 H14       -13.0864   -5.1539   12.7110 H           1 SU3       0.0237
     68 H15       -11.3320   -8.0652   11.0481 H           1 SU3       0.1839
     69 H16        -8.8001   -8.5428   11.0430 H           1 SU3       0.0312
     70 H17        -7.9812   -5.5511   11.1006 H           1 SU3       0.0279
     71 H18        -8.6309   -6.5621    9.6605 H           1 SU3       0.0279
     72 H19       -15.4273  -11.2639    4.3876 H           1 SU3       0.0373
     73 H20       -16.8810   -9.4146    7.7898 H           1 SU3       0.0361
     74 H21       -17.3043  -13.3997    4.2755 H           1 SU3       0.0557
     75 H22       -19.2420  -14.3407    5.4178 H           1 SU3       0.0599
     76 H23       -20.1030  -13.3054    7.4196 H           1 SU3       0.0557
     77 H24       -18.4779  -10.4569    9.1955 H           1 SU3       0.0426
     78 H25       -19.4636  -11.8784    9.4571 H           1 SU3       0.0426
     79 H26       -10.8665   -7.4848   13.6957 H           1 SU3       0.2148
     80 H27       -11.3780   -7.9081   16.5544 H           1 SU3       0.0559
     81 H28       -13.0488   -5.4323   17.5067 H           1 SU3       0.0285
     82 H29       -12.8728   -7.1010   18.3601 H           1 SU3       0.0285
     83 H30       -13.8114   -8.2202   16.3676 H           1 SU3       0.0285
     84 H31       -14.0020   -6.5471   15.5277 H           1 SU3       0.0285
     85 H32       -21.2626  -10.9269    8.0205 H           1 SU3       0.0287
     86 H33       -20.2804   -9.5032    7.6790 H           1 SU3       0.0287
     87 H34       -21.1322  -10.2774   10.5149 H           1 SU3       0.0267
     88 H35       -22.1514   -9.3195    9.4443 H           1 SU3       0.0267
     89 H36       -20.4804   -7.5495    9.2879 H           1 SU3       0.0271
     90 H37       -19.3295   -8.4669   10.2424 H           1 SU3       0.0271
     91 H38       -20.4810   -5.5159   10.7032 H           1 SU3       0.0617
     92 H39       -20.5850   -5.6263   12.4534 H           1 SU3       0.0617
     93 H40       -23.0029   -8.2424   11.4002 H           1 SU3       0.0236
     94 H41       -22.7297   -6.7576   10.4769 H           1 SU3       0.0236
     95 H42       -22.7846   -6.7144   12.2451 H           1 SU3       0.0236
     96 H43       -19.5021   -8.6161   12.7468 H           1 SU3       0.0236
     97 H44       -21.1123   -9.3407   12.6964 H           1 SU3       0.0236
     98 H45       -20.8451   -7.8581   13.6114 H           1 SU3       0.0236
     99 H46       -15.9167   -2.4042   10.9079 H           1 SU3       0.0237
    100 H47       -14.2937   -2.5903   10.2384 H           1 SU3       0.0237
    101 H48       -14.5162   -1.8360   11.8217 H           1 SU3       0.0237
    102 H49       -15.4503   -4.9257   13.7258 H           1 SU3       0.0237
    103 H50       -16.5619   -3.7191   13.0649 H           1 SU3       0.0237
    104 H51       -15.0753   -3.2037   13.8591 H           1 SU3       0.0237
    105 H52       -14.0562   -4.9500    7.8743 H           1 SU3       0.0553
    106 H53       -15.5406   -5.9296    8.0098 H           1 SU3       0.0553
@<TRIPOS>BOND
     1     1     3   2
     2     1     4   1
     3    21     1  am
     4     4     2   1
     5     2     7  am
     6     2    52   1
     7     4     5   1
     8     5     6   1
     9     6    52   1
    10     6    53   1
    11     7     8   2
    12     7     9   1
    13     9    10   1
    14     9    13   1
    15    10    11  am
    16    11    12   1
    17    11    14   2
    18    12    47   1
    19    13    20   1
    20    13    50   1
    21    13    51   1
    22    15    16   2
    23    15    17  am
    24    53    15   1
    25    17    26   1
    26    17    29   1
    27    18    19   1
    28    24    18   1
    29    22    21   1
    30    22    23   1
    31    22    24   1
    32    22    25   1
    33    23    35  am
    34    23    36   2
    35    24    25   1
    36    26    27   2
    37    27    28  ar
    38    27    30  ar
    39    28    29   2
    40    28    33  ar
    41    30    31  ar
    42    31    32  ar
    43    32    33  ar
    44    33    34   1
    45    34    43   1
    46    35    37  am
    47    37    38   1
    48    37    39   2
    49    37    40   2
    50    38    41   1
    51    38    42   1
    52    41    42   1
    53    43    44   1
    54    44    45   1
    55    45    46   1
    56    46    47   1
    57    46    48   1
    58    46    49   1
    59     4    54   1
    60     5    55   1
    61     5    56   1
    62     6    57   1
    63     9    58   1
    64    10    59   1
    65    18    60   1
    66    18    61   1
    67    19    62   1
    68    19    63   1
    69    19    64   1
    70    20    65   1
    71    20    66   1
    72    20    67   1
    73    21    68   1
    74    24    69   1
    75    25    70   1
    76    25    71   1
    77    26    72   1
    78    29    73   1
    79    30    74   1
    80    31    75   1
    81    32    76   1
    82    34    77   1
    83    34    78   1
    84    35    79   1
    85    38    80   1
    86    41    81   1
    87    41    82   1
    88    42    83   1
    89    42    84   1
    90    43    85   1
    91    43    86   1
    92    44    87   1
    93    44    88   1
    94    45    89   1
    95    45    90   1
    96    47    91   1
    97    47    92   1
    98    48    93   1
    99    48    94   1
   100    48    95   1
   101    49    96   1
   102    49    97   1
   103    49    98   1
   104    50    99   1
   105    50   100   1
   106    50   101   1
   107    51   102   1
   108    51   103   1
   109    51   104   1
   110    52   105   1
   111    52   106   1
@<TRIPOS>SUBSTRUCTURE
     1  SU3      1

