@<TRIPOS>MOLECULE
3su3_ligand_063
   106   111
SMALL
GAST_HUCK
****
This file was generated by PARSER (from files_GN.cpp)

@<TRIPOS>ATOM
      1 C         -15.1279  -18.4999   21.0662 C.2         1 SU3       0.2013
      2 N         -16.3264  -17.2249   19.3386 N.am        1 SU3      -0.2469
      3 O         -15.6115  -17.8057   21.9570 O.2         1 SU3      -0.3947
      4 CA        -15.2062  -18.0786   19.6639 C.3         1 SU3       0.1363
      5 CB        -13.9458  -17.2741   19.2445 C.3         1 SU3       0.0206
      6 CG        -14.4776  -16.2461   18.2361 C.3         1 SU3       0.1158
      7 CAF       -17.6077  -17.5914   19.5034 C.2         1 SU3       0.2070
      8 OAG       -17.8307  -18.7667   19.7648 O.2         1 SU3      -0.3942
      9 CAH       -18.7909  -16.7256   19.3784 C.3         1 SU3       0.1378
     10 NAI       -19.5910  -17.2335   18.2797 N.am        1 SU3      -0.2407
     11 CAJ       -19.9922  -16.5090   17.2020 C.2         1 SU3       0.3218
     12 OAK       -20.9036  -17.0578   16.3619 O.3         1 SU3      -0.2633
     13 CAL       -19.6400  -16.5061   20.6986 C.3         1 SU3       0.0025
     14 OAM       -19.5883  -15.2353   17.0277 O.2         1 SU3      -0.3774
     15 CAO       -13.5537  -17.0857   16.0561 C.2         1 SU3       0.4317
     16 OAP       -12.2757  -16.8186   16.4233 O.2         1 SU3      -0.3166
     17 NAQ       -13.8205  -17.6302   14.8415 N.am        1 SU3      -0.2080
     18 CAR       -15.3078  -22.0289   24.3899 C.3         1 SU3      -0.0516
     19 CAS       -14.8821  -23.4743   24.7780 C.3         1 SU3      -0.0651
     20 CAT       -21.1319  -16.1627   20.3438 C.3         1 SU3      -0.0558
     21 NAV       -14.4892  -19.6261   21.3786 N.am        1 SU3      -0.2737
     22 CAX       -14.2723  -20.1659   22.6904 C.3         1 SU3       0.1374
     23 CAY       -13.8412  -19.2157   23.6949 C.2         1 SU3       0.2444
     24 CAZ       -14.8450  -21.5765   22.9746 C.3         1 SU3      -0.0066
     25 CBA       -13.3475  -21.4096   22.6831 C.3         1 SU3      -0.0152
     26 CBB       -12.8988  -17.9771   13.9137 C.2         1 SU3       0.0383
     27 CBC       -13.5523  -18.5169   12.8148 C.ar        1 SU3      -0.0374
     28 CBD       -14.9198  -18.4939   13.0836 C.ar        1 SU3      -0.0293
     29 CBE       -15.0481  -17.9304   14.3542 C.2         1 SU3       0.0366
     30 CBF       -13.0503  -19.0192   11.6047 C.ar        1 SU3      -0.0689
     31 CBG       -13.9705  -19.4935   10.6438 C.ar        1 SU3      -0.0688
     32 CBH       -15.3561  -19.4677   10.9105 C.ar        1 SU3      -0.0606
     33 CBI       -15.8597  -18.9772   12.1431 C.ar        1 SU3      -0.0432
     34 CBJ       -17.3254  -18.9486   12.3943 C.3         1 SU3      -0.0194
     35 NBK       -14.6953  -18.8168   24.6136 N.am        1 SU3      -0.1552
     36 OBL       -12.7194  -18.7182   23.6001 O.2         1 SU3      -0.3404
     37 SBM       -14.3757  -17.6877   25.8210 S.o2        1 SU3       0.0645
     38 CBN       -15.5719  -17.9760   27.1416 C.3         1 SU3       0.1004
     39 OBO       -12.9205  -17.9743   26.3911 O.2         1 SU3      -0.1503
     40 OBP       -14.4548  -16.2196   25.2110 O.2         1 SU3      -0.1503
     41 CBQ       -16.1605  -16.7961   27.9251 C.3         1 SU3      -0.0268
     42 CBR       -17.0053  -17.5021   26.8468 C.3         1 SU3      -0.0268
     43 CBS       -17.9870  -17.6874   11.7773 C.3         1 SU3      -0.0433
     44 CBT       -19.5126  -17.5772   12.0470 C.3         1 SU3      -0.0507
     45 CBU       -19.8809  -17.0890   13.4826 C.3         1 SU3      -0.0453
     46 CBV       -21.4079  -17.0872   13.8688 C.3         1 SU3      -0.0072
     47 CBW       -21.5811  -16.3985   15.2694 C.3         1 SU3       0.0824
     48 CBX       -22.2474  -16.2660   12.8340 C.3         1 SU3      -0.0574
     49 CBY       -21.9753  -18.5430   13.9468 C.3         1 SU3      -0.0574
     50 CBZ       -19.6818  -17.7351   21.6778 C.3         1 SU3      -0.0558
     51 CCA       -19.0604  -15.2870   21.5132 C.3         1 SU3      -0.0558
     52 CD1       -15.9021  -15.9815   18.7645 C.3         1 SU3       0.0677
     53 OD2       -14.5679  -16.7959   16.9133 O.3         1 SU3      -0.2338
     54 H1        -15.2657  -18.9657   19.0263 H           1 SU3       0.0803
     55 H2        -13.1728  -17.9142   18.8114 H           1 SU3       0.0342
     56 H3        -13.5056  -16.7392   20.0908 H           1 SU3       0.0342
     57 H4        -13.8897  -15.3260   18.2226 H           1 SU3       0.0673
     58 H5        -18.4567  -15.7294   19.1051 H           1 SU3       0.0805
     59 H6        -19.9518  -18.1296   18.3747 H           1 SU3       0.1899
     60 H7        -14.9404  -21.3665   25.1813 H           1 SU3       0.0265
     61 H8        -16.4109  -21.9709   24.4235 H           1 SU3       0.0265
     62 H9        -15.4927  -23.8300   25.6061 H           1 SU3       0.0230
     63 H10       -13.8414  -23.4931   25.1178 H           1 SU3       0.0230
     64 H11       -15.0132  -24.1465   23.9219 H           1 SU3       0.0230
     65 H12       -21.7045  -15.8869   21.2178 H           1 SU3       0.0237
     66 H13       -21.6260  -17.0289   19.8852 H           1 SU3       0.0237
     67 H14       -21.1725  -15.3386   19.6216 H           1 SU3       0.0237
     68 H15       -14.1117  -20.1237   20.6388 H           1 SU3       0.1839
     69 H16       -15.3777  -22.0370   22.1436 H           1 SU3       0.0312
     70 H17       -12.6957  -21.5900   23.5412 H           1 SU3       0.0279
     71 H18       -13.0258  -21.7925   21.7149 H           1 SU3       0.0279
     72 H19       -11.8856  -17.8695   13.9946 H           1 SU3       0.0373
     73 H20       -15.9354  -17.7695   14.8375 H           1 SU3       0.0361
     74 H21       -12.0466  -19.0329   11.4178 H           1 SU3       0.0557
     75 H22       -13.6263  -19.8551    9.7526 H           1 SU3       0.0599
     76 H23       -15.9981  -19.8136   10.1939 H           1 SU3       0.0557
     77 H24       -17.5186  -18.9855   13.4666 H           1 SU3       0.0426
     78 H25       -17.7837  -19.8446   11.9658 H           1 SU3       0.0426
     79 H26       -15.5942  -19.2074   24.5901 H           1 SU3       0.2148
     80 H27       -15.5263  -18.9282   27.6675 H           1 SU3       0.0559
     81 H28       -15.8076  -15.7994   27.6586 H           1 SU3       0.0285
     82 H29       -16.4379  -17.0117   28.9528 H           1 SU3       0.0285
     83 H30       -17.8000  -18.1486   27.2125 H           1 SU3       0.0285
     84 H31       -17.1666  -16.9172   25.9382 H           1 SU3       0.0285
     85 H32       -17.8382  -17.7210   10.6937 H           1 SU3       0.0287
     86 H33       -17.4897  -16.7874   12.1491 H           1 SU3       0.0287
     87 H34       -19.9736  -18.5447   11.8447 H           1 SU3       0.0267
     88 H35       -19.9184  -16.8631   11.3272 H           1 SU3       0.0267
     89 H36       -19.4921  -16.0705   13.5834 H           1 SU3       0.0271
     90 H37       -19.3455  -17.7028   14.2093 H           1 SU3       0.0271
     91 H38       -21.2670  -15.3536   15.1926 H           1 SU3       0.0617
     92 H39       -22.6433  -16.3856   15.5369 H           1 SU3       0.0617
     93 H40       -22.2544  -16.7505   11.8567 H           1 SU3       0.0236
     94 H41       -21.8355  -15.2622   12.7153 H           1 SU3       0.0236
     95 H42       -23.2842  -16.1723   13.1612 H           1 SU3       0.0236
     96 H43       -21.3788  -19.1572   14.6235 H           1 SU3       0.0236
     97 H44       -21.9780  -19.0181   12.9665 H           1 SU3       0.0236
     98 H45       -23.0051  -18.5355   14.3109 H           1 SU3       0.0236
     99 H46       -18.6966  -17.9145   22.1213 H           1 SU3       0.0237
    100 H47       -19.9826  -18.6422   21.1383 H           1 SU3       0.0237
    101 H48       -20.3811  -17.5789   22.4911 H           1 SU3       0.0237
    102 H49       -19.0742  -14.3824   20.9008 H           1 SU3       0.0237
    103 H50       -18.0263  -15.4800   21.8052 H           1 SU3       0.0237
    104 H51       -19.6390  -15.0906   22.4115 H           1 SU3       0.0237
    105 H52       -15.8912  -15.1965   19.5353 H           1 SU3       0.0553
    106 H53       -16.5353  -15.6522   17.9297 H           1 SU3       0.0553
@<TRIPOS>BOND
     1     1     3   2
     2     1     4   1
     3    21     1  am
     4     4     2   1
     5     2     7  am
     6     2    52   1
     7     4     5   1
     8     5     6   1
     9     6    52   1
    10     6    53   1
    11     7     8   2
    12     7     9   1
    13     9    10   1
    14     9    13   1
    15    10    11  am
    16    11    12   1
    17    11    14   2
    18    12    47   1
    19    13    20   1
    20    13    50   1
    21    13    51   1
    22    15    16   2
    23    15    17  am
    24    53    15   1
    25    17    26   1
    26    17    29   1
    27    18    19   1
    28    24    18   1
    29    22    21   1
    30    22    23   1
    31    22    24   1
    32    22    25   1
    33    23    35  am
    34    23    36   2
    35    24    25   1
    36    26    27   2
    37    27    28  ar
    38    27    30  ar
    39    28    29   2
    40    28    33  ar
    41    30    31  ar
    42    31    32  ar
    43    32    33  ar
    44    33    34   1
    45    34    43   1
    46    35    37  am
    47    37    38   1
    48    37    39   2
    49    37    40   2
    50    38    41   1
    51    38    42   1
    52    41    42   1
    53    43    44   1
    54    44    45   1
    55    45    46   1
    56    46    47   1
    57    46    48   1
    58    46    49   1
    59     4    54   1
    60     5    55   1
    61     5    56   1
    62     6    57   1
    63     9    58   1
    64    10    59   1
    65    18    60   1
    66    18    61   1
    67    19    62   1
    68    19    63   1
    69    19    64   1
    70    20    65   1
    71    20    66   1
    72    20    67   1
    73    21    68   1
    74    24    69   1
    75    25    70   1
    76    25    71   1
    77    26    72   1
    78    29    73   1
    79    30    74   1
    80    31    75   1
    81    32    76   1
    82    34    77   1
    83    34    78   1
    84    35    79   1
    85    38    80   1
    86    41    81   1
    87    41    82   1
    88    42    83   1
    89    42    84   1
    90    43    85   1
    91    43    86   1
    92    44    87   1
    93    44    88   1
    94    45    89   1
    95    45    90   1
    96    47    91   1
    97    47    92   1
    98    48    93   1
    99    48    94   1
   100    48    95   1
   101    49    96   1
   102    49    97   1
   103    49    98   1
   104    50    99   1
   105    50   100   1
   106    50   101   1
   107    51   102   1
   108    51   103   1
   109    51   104   1
   110    52   105   1
   111    52   106   1
@<TRIPOS>SUBSTRUCTURE
     1  SU3      1

