@<TRIPOS>MOLECULE
3su3_ligand_013
   106   111
SMALL
GAST_HUCK
****
This file was generated by PARSER (from files_GN.cpp)

@<TRIPOS>ATOM
      1 C         -12.6280   -5.8393   11.9309 C.2         1 SU3       0.2013
      2 N         -10.6796   -5.7015   10.4116 N.am        1 SU3      -0.2469
      3 O         -13.1941   -4.9817   12.6155 O.2         1 SU3      -0.3947
      4 CA        -12.0985   -5.4596   10.6231 C.3         1 SU3       0.1363
      5 CB        -12.8180   -6.2500    9.4996 C.3         1 SU3       0.0206
      6 CG        -11.7613   -6.3581    8.3955 C.3         1 SU3       0.1158
      7 CAF        -9.7000   -5.2119   11.1973 C.2         1 SU3       0.2070
      8 OAG       -10.0103   -4.4140   12.0713 O.2         1 SU3      -0.3942
      9 CAH        -8.2648   -5.5453   11.1029 C.3         1 SU3       0.1378
     10 NAI        -7.5496   -4.3439   10.7392 N.am        1 SU3      -0.2407
     11 CAJ        -6.7484   -4.1713    9.6604 C.2         1 SU3       0.3218
     12 OAK        -6.0335   -3.0158    9.5572 O.3         1 SU3      -0.2633
     13 CAL        -7.6359   -6.2507   12.3794 C.3         1 SU3       0.0025
     14 OAM        -6.5723   -5.1578    8.7451 O.2         1 SU3      -0.3774
     15 CAO       -12.6240   -4.7785    6.6311 C.2         1 SU3       0.4317
     16 OAP       -13.7177   -5.5387    6.3806 O.2         1 SU3      -0.3166
     17 NAQ       -12.4288   -3.6101    5.9703 N.am        1 SU3      -0.2080
     18 CAR       -15.2628   -9.3150   14.1316 C.3         1 SU3      -0.0516
     19 CAS       -16.4966   -8.3892   14.0962 C.3         1 SU3      -0.0651
     20 CAT        -6.1298   -6.5923   12.1021 C.3         1 SU3      -0.0558
     21 NAV       -12.5011   -7.0851   12.3755 N.am        1 SU3      -0.2737
     22 CAX       -13.1018   -7.6453   13.5589 C.3         1 SU3       0.1374
     23 CAY       -13.1236   -6.8897   14.8016 C.2         1 SU3       0.2444
     24 CAZ       -14.1032   -8.7959   13.2402 C.3         1 SU3      -0.0066
     25 CBA       -12.6871   -9.1280   13.7483 C.3         1 SU3      -0.0152
     26 CBB       -13.2557   -3.0613    5.0535 C.2         1 SU3       0.0383
     27 CBC       -12.7176   -1.8501    4.6306 C.ar        1 SU3      -0.0374
     28 CBD       -11.5225   -1.6630    5.3217 C.ar        1 SU3      -0.0293
     29 CBE       -11.3686   -2.7845    6.1328 C.2         1 SU3       0.0366
     30 CBF       -13.1813   -0.9028    3.7043 C.ar        1 SU3      -0.0689
     31 CBG       -12.4036    0.2505    3.4782 C.ar        1 SU3      -0.0688
     32 CBH       -11.1936    0.4451    4.1791 C.ar        1 SU3      -0.0606
     33 CBI       -10.7329   -0.5026    5.1256 C.ar        1 SU3      -0.0432
     34 CBJ        -9.4772   -0.2623    5.8840 C.3         1 SU3      -0.0194
     35 NBK       -12.1639   -6.0201   15.0656 N.am        1 SU3      -0.1552
     36 OBL       -14.0808   -6.9767   15.5790 O.2         1 SU3      -0.3404
     37 SBM       -12.0835   -5.0428   16.4435 S.o2        1 SU3       0.0645
     38 CBN       -13.3328   -3.7749   16.7588 C.3         1 SU3       0.1004
     39 OBO       -11.8019   -5.9194   17.7426 O.2         1 SU3      -0.1503
     40 OBP       -10.7476   -4.2044   16.2481 O.2         1 SU3      -0.1503
     41 CBQ       -14.1373   -3.2339   15.5639 C.3         1 SU3      -0.0268
     42 CBR       -14.8221   -4.1105   16.6234 C.3         1 SU3      -0.0268
     43 CBS        -8.2205   -0.6730    5.0719 C.3         1 SU3      -0.0433
     44 CBT        -6.8802   -0.4674    5.8342 C.3         1 SU3      -0.0507
     45 CBU        -6.5523   -1.5788    6.8785 C.3         1 SU3      -0.0453
     46 CBV        -5.2762   -1.3741    7.7762 C.3         1 SU3      -0.0072
     47 CBW        -5.0065   -2.6822    8.6000 C.3         1 SU3       0.0824
     48 CBX        -4.0120   -1.0924    6.8966 C.3         1 SU3      -0.0574
     49 CBY        -5.4721   -0.1837    8.7710 C.3         1 SU3      -0.0574
     50 CBZ        -7.6856   -5.3753   13.6767 C.3         1 SU3      -0.0558
     51 CCA        -8.3735   -7.6024   12.6689 C.3         1 SU3      -0.0558
     52 CD1       -10.4559   -6.4509    9.2055 C.3         1 SU3       0.0677
     53 OD2       -11.7229   -5.1875    7.5650 O.3         1 SU3      -0.2338
     54 H1        -12.2766   -4.3890   10.4507 H           1 SU3       0.0803
     55 H2        -13.7214   -5.7364    9.1635 H           1 SU3       0.0342
     56 H3        -13.0899   -7.2621    9.8170 H           1 SU3       0.0342
     57 H4        -11.9033   -7.2491    7.7785 H           1 SU3       0.0673
     58 H5         -8.1352   -6.2733   10.3033 H           1 SU3       0.0805
     59 H6         -7.5995   -3.5994   11.3639 H           1 SU3       0.1899
     60 H7        -15.5580  -10.3020   13.7598 H           1 SU3       0.0265
     61 H8        -14.9552   -9.4493   15.1682 H           1 SU3       0.0265
     62 H9        -17.2663   -8.7851   14.7610 H           1 SU3       0.0230
     63 H10       -16.9047   -8.3324   13.0842 H           1 SU3       0.0230
     64 H11       -16.2347   -7.3840   14.4288 H           1 SU3       0.0230
     65 H12        -5.6898   -7.1495   12.9333 H           1 SU3       0.0237
     66 H13        -5.5381   -5.6858   11.9614 H           1 SU3       0.0237
     67 H14        -6.0296   -7.2026   11.2040 H           1 SU3       0.0237
     68 H15       -12.0221   -7.7001   11.7905 H           1 SU3       0.1839
     69 H16       -14.2150   -9.0093   12.1721 H           1 SU3       0.0312
     70 H17       -12.6168   -9.4931   14.7776 H           1 SU3       0.0279
     71 H18       -12.0450   -9.5897   12.9920 H           1 SU3       0.0279
     72 H19       -14.1392   -3.4540    4.7208 H           1 SU3       0.0373
     73 H20       -10.5711   -2.9553    6.7504 H           1 SU3       0.0361
     74 H21       -14.0626   -1.0457    3.2058 H           1 SU3       0.0557
     75 H22       -12.7239    0.9539    2.8082 H           1 SU3       0.0599
     76 H23       -10.6544    1.2964    4.0011 H           1 SU3       0.0557
     77 H24        -9.4995   -0.8088    6.8256 H           1 SU3       0.0426
     78 H25        -9.4118    0.7977    6.1431 H           1 SU3       0.0426
     79 H26       -11.4274   -5.9502   14.4385 H           1 SU3       0.2148
     80 H27       -13.1235   -3.0500   17.5492 H           1 SU3       0.0559
     81 H28       -13.9713   -3.7099   14.5928 H           1 SU3       0.0285
     82 H29       -14.4168   -2.1780   15.5857 H           1 SU3       0.0285
     83 H30       -15.4793   -3.5792   17.3152 H           1 SU3       0.0285
     84 H31       -15.0798   -5.1269   16.2913 H           1 SU3       0.0285
     85 H32        -8.1889   -0.0651    4.1613 H           1 SU3       0.0287
     86 H33        -8.3035   -1.7199    4.7639 H           1 SU3       0.0287
     87 H34        -6.8966    0.5129    6.3137 H           1 SU3       0.0267
     88 H35        -6.0839   -0.4529    5.0854 H           1 SU3       0.0267
     89 H36        -6.4457   -2.5154    6.3247 H           1 SU3       0.0271
     90 H37        -7.4123   -1.6981    7.5363 H           1 SU3       0.0271
     91 H38        -4.8323   -3.5162    7.9135 H           1 SU3       0.0617
     92 H39        -4.0884   -2.5591    9.1786 H           1 SU3       0.0617
     93 H40        -4.0963   -0.1378    6.3733 H           1 SU3       0.0236
     94 H41        -3.8770   -1.8800    6.1512 H           1 SU3       0.0236
     95 H42        -3.1088   -1.0470    7.5105 H           1 SU3       0.0236
     96 H43        -6.3752   -0.3217    9.3694 H           1 SU3       0.0236
     97 H44        -5.5581    0.7665    8.2418 H           1 SU3       0.0236
     98 H45        -4.6212   -0.1056    9.4529 H           1 SU3       0.0236
     99 H46        -8.7071   -5.2460   14.0358 H           1 SU3       0.0237
    100 H47        -7.2551   -4.3898   13.4932 H           1 SU3       0.0237
    101 H48        -7.1211   -5.8418   14.4879 H           1 SU3       0.0237
    102 H49        -8.3219   -8.2666   11.8014 H           1 SU3       0.0237
    103 H50        -9.4262   -7.4334   12.9036 H           1 SU3       0.0237
    104 H51        -7.9243   -8.1245   13.5185 H           1 SU3       0.0237
    105 H52       -10.2308   -7.4921    9.4560 H           1 SU3       0.0553
    106 H53        -9.6396   -6.0427    8.6008 H           1 SU3       0.0553
@<TRIPOS>BOND
     1     1     3   2
     2     1     4   1
     3    21     1  am
     4     4     2   1
     5     2     7  am
     6     2    52   1
     7     4     5   1
     8     5     6   1
     9     6    52   1
    10     6    53   1
    11     7     8   2
    12     7     9   1
    13     9    10   1
    14     9    13   1
    15    10    11  am
    16    11    12   1
    17    11    14   2
    18    12    47   1
    19    13    20   1
    20    13    50   1
    21    13    51   1
    22    15    16   2
    23    15    17  am
    24    53    15   1
    25    17    26   1
    26    17    29   1
    27    18    19   1
    28    24    18   1
    29    22    21   1
    30    22    23   1
    31    22    24   1
    32    22    25   1
    33    23    35  am
    34    23    36   2
    35    24    25   1
    36    26    27   2
    37    27    28  ar
    38    27    30  ar
    39    28    29   2
    40    28    33  ar
    41    30    31  ar
    42    31    32  ar
    43    32    33  ar
    44    33    34   1
    45    34    43   1
    46    35    37  am
    47    37    38   1
    48    37    39   2
    49    37    40   2
    50    38    41   1
    51    38    42   1
    52    41    42   1
    53    43    44   1
    54    44    45   1
    55    45    46   1
    56    46    47   1
    57    46    48   1
    58    46    49   1
    59     4    54   1
    60     5    55   1
    61     5    56   1
    62     6    57   1
    63     9    58   1
    64    10    59   1
    65    18    60   1
    66    18    61   1
    67    19    62   1
    68    19    63   1
    69    19    64   1
    70    20    65   1
    71    20    66   1
    72    20    67   1
    73    21    68   1
    74    24    69   1
    75    25    70   1
    76    25    71   1
    77    26    72   1
    78    29    73   1
    79    30    74   1
    80    31    75   1
    81    32    76   1
    82    34    77   1
    83    34    78   1
    84    35    79   1
    85    38    80   1
    86    41    81   1
    87    41    82   1
    88    42    83   1
    89    42    84   1
    90    43    85   1
    91    43    86   1
    92    44    87   1
    93    44    88   1
    94    45    89   1
    95    45    90   1
    96    47    91   1
    97    47    92   1
    98    48    93   1
    99    48    94   1
   100    48    95   1
   101    49    96   1
   102    49    97   1
   103    49    98   1
   104    50    99   1
   105    50   100   1
   106    50   101   1
   107    51   102   1
   108    51   103   1
   109    51   104   1
   110    52   105   1
   111    52   106   1
@<TRIPOS>SUBSTRUCTURE
     1  SU3      1

