@<TRIPOS>MOLECULE
3su3_ligand_029
   106   111
SMALL
GAST_HUCK
****
This file was generated by PARSER (from files_GN.cpp)

@<TRIPOS>ATOM
      1 C          -9.5042   -7.0150    8.2843 C.2         1 SU3       0.2013
      2 N         -10.3675   -8.4165   10.1380 N.am        1 SU3      -0.2469
      3 O          -9.8150   -7.7768    7.3863 O.2         1 SU3      -0.3947
      4 CA        -10.2765   -7.0893    9.5438 C.3         1 SU3       0.1363
      5 CB         -9.7222   -6.1954   10.6936 C.3         1 SU3       0.0206
      6 CG        -10.0697   -6.9605   11.9759 C.3         1 SU3       0.1158
      7 CAF       -10.9353   -9.4914    9.5543 C.2         1 SU3       0.2070
      8 OAG       -11.6477   -9.3096    8.5731 O.2         1 SU3      -0.3942
      9 CAH       -10.7364  -10.8982    9.9565 C.3         1 SU3       0.1378
     10 NAI       -12.0257  -11.5134   10.1216 N.am        1 SU3      -0.2407
     11 CAJ       -12.5159  -12.1229   11.2278 C.2         1 SU3       0.3218
     12 OAK       -13.7341  -12.7118   11.0929 O.3         1 SU3      -0.2633
     13 CAL        -9.8172  -11.7427    8.9757 C.3         1 SU3       0.0025
     14 OAM       -11.8255  -12.1962   12.3876 O.2         1 SU3      -0.3774
     15 CAO       -11.9387   -5.6129   12.9942 C.2         1 SU3       0.4317
     16 OAP       -11.1316   -4.5684   13.2987 O.2         1 SU3      -0.3166
     17 NAQ       -13.2632   -5.5881   13.2812 N.am        1 SU3      -0.2080
     18 CAR        -5.8648   -6.7201    5.2452 C.3         1 SU3      -0.0516
     19 CAS        -5.8751   -7.4765    3.9017 C.3         1 SU3      -0.0651
     20 CAT       -10.4968  -12.0439    7.5960 C.3         1 SU3      -0.0558
     21 NAV        -8.5895   -6.0718    8.0595 N.am        1 SU3      -0.2737
     22 CAX        -7.8084   -5.7155    6.8980 C.3         1 SU3       0.1374
     23 CAY        -7.2387   -4.3836    7.0126 C.2         1 SU3       0.2444
     24 CAZ        -7.2207   -6.8338    5.9949 C.3         1 SU3      -0.0066
     25 CBA        -8.3783   -5.9669    5.4813 C.3         1 SU3      -0.0152
     26 CBB       -13.9379   -4.5745   13.8709 C.2         1 SU3       0.0383
     27 CBC       -15.2787   -4.9339   13.9777 C.ar        1 SU3      -0.0374
     28 CBD       -15.4141   -6.2102   13.4328 C.ar        1 SU3      -0.0293
     29 CBE       -14.1393   -6.5841   13.0155 C.2         1 SU3       0.0366
     30 CBF       -16.3810   -4.2471   14.5091 C.ar        1 SU3      -0.0689
     31 CBG       -17.6404   -4.8805   14.4832 C.ar        1 SU3      -0.0688
     32 CBH       -17.7802   -6.1733   13.9370 C.ar        1 SU3      -0.0606
     33 CBI       -16.6686   -6.8654   13.3949 C.ar        1 SU3      -0.0432
     34 CBJ       -16.8408   -8.2346   12.8378 C.3         1 SU3      -0.0194
     35 NBK        -5.9403   -4.1673    7.1699 N.am        1 SU3      -0.1552
     36 OBL        -8.0258   -3.4480    7.0440 O.2         1 SU3      -0.3404
     37 SBM        -5.2162   -2.6427    7.2208 S.o2        1 SU3       0.0645
     38 CBN        -5.4972   -1.7480    8.7672 C.3         1 SU3       0.1004
     39 OBO        -3.6598   -2.8727    6.9784 O.2         1 SU3      -0.1503
     40 OBP        -5.6872   -1.7897    5.9618 O.2         1 SU3      -0.1503
     41 CBQ        -4.3505   -1.6167    9.7800 C.3         1 SU3      -0.0268
     42 CBR        -4.7667   -0.4066    8.9345 C.3         1 SU3      -0.0268
     43 CBS       -16.9061   -9.3052   13.9604 C.3         1 SU3      -0.0433
     44 CBT       -17.1007  -10.7571   13.4398 C.3         1 SU3      -0.0507
     45 CBU       -15.7981  -11.4331   12.9148 C.3         1 SU3      -0.0453
     46 CBV       -15.9340  -12.8634   12.2662 C.3         1 SU3      -0.0072
     47 CBW       -14.4997  -13.4614   12.0480 C.3         1 SU3       0.0824
     48 CBX       -16.7268  -13.8393   13.1975 C.3         1 SU3      -0.0574
     49 CBY       -16.6654  -12.7825   10.8854 C.3         1 SU3      -0.0574
     50 CBZ        -8.4678  -10.9964    8.7091 C.3         1 SU3      -0.0558
     51 CCA        -9.4690  -13.1160    9.6451 C.3         1 SU3      -0.0558
     52 CD1        -9.9359   -8.4162   11.5063 C.3         1 SU3       0.0677
     53 OD2       -11.4163   -6.7178   12.3972 O.3         1 SU3      -0.2338
     54 H1        -11.2996   -6.7513    9.3345 H           1 SU3       0.0803
     55 H2        -10.1556   -5.1889   10.6772 H           1 SU3       0.0342
     56 H3         -8.6292   -6.1091   10.6643 H           1 SU3       0.0342
     57 H4         -9.3709   -6.7497   12.7912 H           1 SU3       0.0673
     58 H5        -10.2184  -10.9131   10.9165 H           1 SU3       0.0805
     59 H6        -12.5955  -11.5389    9.3382 H           1 SU3       0.1899
     60 H7         -5.6155   -5.6795    5.0358 H           1 SU3       0.0265
     61 H8         -5.0818   -7.1418    5.8826 H           1 SU3       0.0265
     62 H9         -4.8999   -7.3784    3.4224 H           1 SU3       0.0230
     63 H10        -6.6313   -7.0526    3.2388 H           1 SU3       0.0230
     64 H11        -6.0873   -8.5370    4.0542 H           1 SU3       0.0230
     65 H12        -9.8369  -12.6417    6.9633 H           1 SU3       0.0237
     66 H13       -10.7228  -11.1248    7.0564 H           1 SU3       0.0237
     67 H14       -11.4247  -12.6013    7.7288 H           1 SU3       0.0237
     68 H15        -8.4362   -5.4878    8.8098 H           1 SU3       0.1839
     69 H16        -7.5171   -7.8451    6.2885 H           1 SU3       0.0312
     70 H17        -8.1054   -5.2578    4.6969 H           1 SU3       0.0279
     71 H18        -9.3340   -6.4767    5.3939 H           1 SU3       0.0279
     72 H19       -13.5424   -3.6862   14.1888 H           1 SU3       0.0373
     73 H20       -13.9083   -7.4785   12.5746 H           1 SU3       0.0361
     74 H21       -16.2735   -3.3135   14.9107 H           1 SU3       0.0557
     75 H22       -18.4566   -4.4066   14.8726 H           1 SU3       0.0599
     76 H23       -18.7066   -6.6088   13.9368 H           1 SU3       0.0557
     77 H24       -16.0263   -8.4725   12.1532 H           1 SU3       0.0426
     78 H25       -17.7616   -8.2653   12.2483 H           1 SU3       0.0426
     79 H26        -5.3384   -4.9262    7.1608 H           1 SU3       0.2148
     80 H27        -6.5078   -1.7498    9.1808 H           1 SU3       0.0559
     81 H28        -3.3901   -2.0611    9.5115 H           1 SU3       0.0285
     82 H29        -4.6438   -1.5840   10.8304 H           1 SU3       0.0285
     83 H30        -5.3014    0.3724    9.4811 H           1 SU3       0.0285
     84 H31        -4.0506   -0.1199    8.1610 H           1 SU3       0.0285
     85 H32       -17.7500   -9.0664   14.6143 H           1 SU3       0.0287
     86 H33       -15.9984   -9.2565   14.5691 H           1 SU3       0.0287
     87 H34       -17.8668  -10.7561   12.6627 H           1 SU3       0.0267
     88 H35       -17.4806  -11.3506   14.2748 H           1 SU3       0.0267
     89 H36       -15.1105  -11.4973   13.7639 H           1 SU3       0.0271
     90 H37       -15.3321  -10.7676   12.1840 H           1 SU3       0.0271
     91 H38       -13.9716  -13.5288   13.0030 H           1 SU3       0.0617
     92 H39       -14.5790  -14.4771   11.6533 H           1 SU3       0.0617
     93 H40       -17.7691  -13.5312   13.2978 H           1 SU3       0.0236
     94 H41       -16.2806  -13.8694   14.1936 H           1 SU3       0.0236
     95 H42       -16.7255  -14.8536   12.7925 H           1 SU3       0.0236
     96 H43       -16.1591  -12.0845   10.2155 H           1 SU3       0.0236
     97 H44       -17.6972  -12.4484   11.0011 H           1 SU3       0.0236
     98 H45       -16.6850  -13.7613   10.4013 H           1 SU3       0.0236
     99 H46        -7.9949  -10.7085    9.6510 H           1 SU3       0.0237
    100 H47        -8.6288  -10.0915    8.1232 H           1 SU3       0.0237
    101 H48        -7.7678  -11.6251    8.1536 H           1 SU3       0.0237
    102 H49       -10.3708  -13.6985    9.8433 H           1 SU3       0.0237
    103 H50        -8.9476  -12.9663   10.5938 H           1 SU3       0.0237
    104 H51        -8.8210  -13.7170    9.0016 H           1 SU3       0.0237
    105 H52        -8.8963   -8.7563   11.5677 H           1 SU3       0.0553
    106 H53       -10.5685   -9.0406   12.1421 H           1 SU3       0.0553
@<TRIPOS>BOND
     1     1     3   2
     2     1     4   1
     3    21     1  am
     4     4     2   1
     5     2     7  am
     6     2    52   1
     7     4     5   1
     8     5     6   1
     9     6    52   1
    10     6    53   1
    11     7     8   2
    12     7     9   1
    13     9    10   1
    14     9    13   1
    15    10    11  am
    16    11    12   1
    17    11    14   2
    18    12    47   1
    19    13    20   1
    20    13    50   1
    21    13    51   1
    22    15    16   2
    23    15    17  am
    24    53    15   1
    25    17    26   1
    26    17    29   1
    27    18    19   1
    28    24    18   1
    29    22    21   1
    30    22    23   1
    31    22    24   1
    32    22    25   1
    33    23    35  am
    34    23    36   2
    35    24    25   1
    36    26    27   2
    37    27    28  ar
    38    27    30  ar
    39    28    29   2
    40    28    33  ar
    41    30    31  ar
    42    31    32  ar
    43    32    33  ar
    44    33    34   1
    45    34    43   1
    46    35    37  am
    47    37    38   1
    48    37    39   2
    49    37    40   2
    50    38    41   1
    51    38    42   1
    52    41    42   1
    53    43    44   1
    54    44    45   1
    55    45    46   1
    56    46    47   1
    57    46    48   1
    58    46    49   1
    59     4    54   1
    60     5    55   1
    61     5    56   1
    62     6    57   1
    63     9    58   1
    64    10    59   1
    65    18    60   1
    66    18    61   1
    67    19    62   1
    68    19    63   1
    69    19    64   1
    70    20    65   1
    71    20    66   1
    72    20    67   1
    73    21    68   1
    74    24    69   1
    75    25    70   1
    76    25    71   1
    77    26    72   1
    78    29    73   1
    79    30    74   1
    80    31    75   1
    81    32    76   1
    82    34    77   1
    83    34    78   1
    84    35    79   1
    85    38    80   1
    86    41    81   1
    87    41    82   1
    88    42    83   1
    89    42    84   1
    90    43    85   1
    91    43    86   1
    92    44    87   1
    93    44    88   1
    94    45    89   1
    95    45    90   1
    96    47    91   1
    97    47    92   1
    98    48    93   1
    99    48    94   1
   100    48    95   1
   101    49    96   1
   102    49    97   1
   103    49    98   1
   104    50    99   1
   105    50   100   1
   106    50   101   1
   107    51   102   1
   108    51   103   1
   109    51   104   1
   110    52   105   1
   111    52   106   1
@<TRIPOS>SUBSTRUCTURE
     1  SU3      1

