@<TRIPOS>MOLECULE
3su3_ligand_073
   106   111
SMALL
GAST_HUCK
****
This file was generated by PARSER (from files_GN.cpp)

@<TRIPOS>ATOM
      1 C         -17.4232  -14.5892   17.9118 C.2         1 SU3       0.2013
      2 N         -15.3065  -15.5423   17.2157 N.am        1 SU3      -0.2469
      3 O         -17.0651  -13.7073   18.6846 O.2         1 SU3      -0.3947
      4 CA        -16.6068  -15.7993   17.8026 C.3         1 SU3       0.1363
      5 CB        -16.3322  -16.4594   19.1841 C.3         1 SU3       0.0206
      6 CG        -14.8742  -16.9326   19.0842 C.3         1 SU3       0.1158
      7 CAF       -15.1309  -15.0710   15.9639 C.2         1 SU3       0.2070
      8 OAG       -16.0945  -15.0957   15.2070 O.2         1 SU3      -0.3942
      9 CAH       -13.8702  -14.5734   15.3787 C.3         1 SU3       0.1378
     10 NAI       -13.5180  -15.4609   14.2941 N.am        1 SU3      -0.2407
     11 CAJ       -12.3342  -16.1025   14.1489 C.2         1 SU3       0.3218
     12 OAK       -12.0720  -16.6948   12.9540 O.3         1 SU3      -0.2633
     13 CAL       -13.8544  -13.0356   14.9521 C.3         1 SU3       0.0025
     14 OAM       -11.3841  -16.0660   15.1164 O.2         1 SU3      -0.3774
     15 CAO       -15.1165  -19.4390   19.1249 C.2         1 SU3       0.4317
     16 OAP       -15.5995  -19.4446   20.3920 O.2         1 SU3      -0.3166
     17 NAQ       -14.9403  -20.5996   18.4462 N.am        1 SU3      -0.2080
     18 CAR       -19.3177  -10.5596   17.6156 C.3         1 SU3      -0.0516
     19 CAS       -18.9079  -10.2758   19.0796 C.3         1 SU3      -0.0651
     20 CAT       -13.6168  -12.1492   16.2245 C.3         1 SU3      -0.0558
     21 NAV       -18.4732  -14.4072   17.1166 N.am        1 SU3      -0.2737
     22 CAX       -19.3299  -13.2592   17.1071 C.3         1 SU3       0.1374
     23 CAY       -20.6088  -13.4196   17.7642 C.2         1 SU3       0.2444
     24 CAZ       -18.6680  -11.8544   17.0565 C.3         1 SU3      -0.0066
     25 CBA       -19.2905  -12.4538   15.7891 C.3         1 SU3      -0.0152
     26 CBB       -15.1878  -21.8421   18.9176 C.2         1 SU3       0.0383
     27 CBC       -14.8614  -22.7688   17.9331 C.ar        1 SU3      -0.0374
     28 CBD       -14.4124  -22.0553   16.8235 C.ar        1 SU3      -0.0293
     29 CBE       -14.4685  -20.7107   17.1818 C.2         1 SU3       0.0366
     30 CBF       -14.9237  -24.1699   17.9279 C.ar        1 SU3      -0.0689
     31 CBG       -14.5213  -24.8544   16.7636 C.ar        1 SU3      -0.0688
     32 CBH       -14.0675  -24.1367   15.6347 C.ar        1 SU3      -0.0606
     33 CBI       -14.0082  -22.7196   15.6396 C.ar        1 SU3      -0.0432
     34 CBJ       -13.5443  -21.9836   14.4334 C.3         1 SU3      -0.0194
     35 NBK       -21.5716  -14.1403   17.2129 N.am        1 SU3      -0.1552
     36 OBL       -20.7169  -12.9528   18.8916 O.2         1 SU3      -0.3404
     37 SBM       -23.1039  -14.3582   17.8855 S.o2        1 SU3       0.0645
     38 CBN       -23.1859  -15.3612   19.3872 C.3         1 SU3       0.1004
     39 OBO       -23.7580  -12.9317   18.1346 O.2         1 SU3      -0.1503
     40 OBP       -24.0350  -15.0172   16.7777 O.2         1 SU3      -0.1503
     41 CBQ       -22.8462  -16.8514   19.2291 C.3         1 SU3      -0.0268
     42 CBR       -21.8904  -15.9272   19.9928 C.3         1 SU3      -0.0268
     43 CBS       -11.9971  -21.9899   14.3000 C.3         1 SU3      -0.0433
     44 CBT       -11.4732  -21.1945   13.0713 C.3         1 SU3      -0.0507
     45 CBU       -11.4290  -19.6492   13.2762 C.3         1 SU3      -0.0453
     46 CBV       -10.9432  -18.7731   12.0621 C.3         1 SU3      -0.0072
     47 CBW       -10.8285  -17.2793   12.5226 C.3         1 SU3       0.0824
     48 CBX        -9.5276  -19.2230   11.5649 C.3         1 SU3      -0.0574
     49 CBY       -11.9511  -18.8567   10.8706 C.3         1 SU3      -0.0574
     50 CBZ       -12.6809  -12.7380   13.9532 C.3         1 SU3      -0.0558
     51 CCA       -15.1676  -12.5338   14.2601 C.3         1 SU3      -0.0558
     52 CD1       -14.2457  -15.9311   18.0964 C.3         1 SU3       0.0677
     53 OD2       -14.7759  -18.2574   18.5413 O.3         1 SU3      -0.2338
     54 H1        -17.1180  -16.5415   17.1787 H           1 SU3       0.0803
     55 H2        -17.0223  -17.2844   19.3769 H           1 SU3       0.0342
     56 H3        -16.4074  -15.7548   20.0178 H           1 SU3       0.0342
     57 H4        -14.3627  -16.8940   20.0513 H           1 SU3       0.0673
     58 H5        -13.0908  -14.6573   16.1371 H           1 SU3       0.0805
     59 H6        -14.1412  -15.5189   13.5521 H           1 SU3       0.1899
     60 H7        -18.9745   -9.7294   16.9938 H           1 SU3       0.0265
     61 H8        -20.4085  -10.6010   17.5564 H           1 SU3       0.0265
     62 H9        -19.2612   -9.2862   19.3800 H           1 SU3       0.0230
     63 H10       -17.8225  -10.3090   19.1967 H           1 SU3       0.0230
     64 H11       -19.3555  -11.0129   19.7462 H           1 SU3       0.0230
     65 H12       -13.6660  -11.0860   15.9819 H           1 SU3       0.0237
     66 H13       -12.6320  -12.3459   16.6543 H           1 SU3       0.0237
     67 H14       -14.3665  -12.3606   16.9892 H           1 SU3       0.0237
     68 H15       -18.6920  -15.1170   16.4924 H           1 SU3       0.1839
     69 H16       -17.5791  -11.8408   16.9886 H           1 SU3       0.0312
     70 H17       -20.2222  -11.9962   15.4489 H           1 SU3       0.0279
     71 H18       -18.5723  -12.7982   15.0411 H           1 SU3       0.0279
     72 H19       -15.5457  -22.0785   19.8463 H           1 SU3       0.0373
     73 H20       -14.1906  -19.9312   16.5816 H           1 SU3       0.0361
     74 H21       -15.2545  -24.6838   18.7473 H           1 SU3       0.0557
     75 H22       -14.5610  -25.8750   16.7359 H           1 SU3       0.0599
     76 H23       -13.7868  -24.6591   14.8009 H           1 SU3       0.0557
     77 H24       -13.9011  -20.9537   14.4584 H           1 SU3       0.0426
     78 H25       -13.9876  -22.4419   13.5446 H           1 SU3       0.0426
     79 H26       -21.4092  -14.5307   16.3386 H           1 SU3       0.2148
     80 H27       -24.0000  -15.1682   20.0868 H           1 SU3       0.0559
     81 H28       -22.4854  -17.1839   18.2534 H           1 SU3       0.0285
     82 H29       -23.4235  -17.5388   19.8499 H           1 SU3       0.0285
     83 H30       -21.8828  -16.0736   21.0743 H           1 SU3       0.0285
     84 H31       -20.9495  -15.7302   19.4768 H           1 SU3       0.0285
     85 H32       -11.6668  -23.0284   14.1985 H           1 SU3       0.0287
     86 H33       -11.5436  -21.5905   15.2127 H           1 SU3       0.0287
     87 H34       -12.0879  -21.4412   12.2043 H           1 SU3       0.0267
     88 H35       -10.4617  -21.5476   12.8644 H           1 SU3       0.0267
     89 H36       -10.7777  -19.4511   14.1329 H           1 SU3       0.0271
     90 H37       -12.4294  -19.3147   13.5599 H           1 SU3       0.0271
     91 H38       -10.0649  -17.1969   13.3027 H           1 SU3       0.0617
     92 H39       -10.4888  -16.6638   11.6870 H           1 SU3       0.0617
     93 H40        -9.5584  -20.2233   11.1315 H           1 SU3       0.0236
     94 H41        -8.8118  -19.2284   12.3901 H           1 SU3       0.0236
     95 H42        -9.1510  -18.5456   10.7955 H           1 SU3       0.0236
     96 H43       -12.9600  -18.5972   11.1980 H           1 SU3       0.0236
     97 H44       -11.9786  -19.8613   10.4470 H           1 SU3       0.0236
     98 H45       -11.6656  -18.1685   10.0721 H           1 SU3       0.0236
     99 H46       -12.8643  -13.2027   12.9814 H           1 SU3       0.0237
    100 H47       -11.7386  -13.1272   14.3402 H           1 SU3       0.0237
    101 H48       -12.5629  -11.6640   13.7881 H           1 SU3       0.0237
    102 H49       -16.0070  -12.5394   14.9567 H           1 SU3       0.0237
    103 H50       -15.4188  -13.1663   13.4071 H           1 SU3       0.0237
    104 H51       -15.0517  -11.5090   13.8994 H           1 SU3       0.0237
    105 H52       -13.8719  -15.0490   18.6205 H           1 SU3       0.0553
    106 H53       -13.4138  -16.4187   17.5791 H           1 SU3       0.0553
@<TRIPOS>BOND
     1     1     3   2
     2     1     4   1
     3    21     1  am
     4     4     2   1
     5     2     7  am
     6     2    52   1
     7     4     5   1
     8     5     6   1
     9     6    52   1
    10     6    53   1
    11     7     8   2
    12     7     9   1
    13     9    10   1
    14     9    13   1
    15    10    11  am
    16    11    12   1
    17    11    14   2
    18    12    47   1
    19    13    20   1
    20    13    50   1
    21    13    51   1
    22    15    16   2
    23    15    17  am
    24    53    15   1
    25    17    26   1
    26    17    29   1
    27    18    19   1
    28    24    18   1
    29    22    21   1
    30    22    23   1
    31    22    24   1
    32    22    25   1
    33    23    35  am
    34    23    36   2
    35    24    25   1
    36    26    27   2
    37    27    28  ar
    38    27    30  ar
    39    28    29   2
    40    28    33  ar
    41    30    31  ar
    42    31    32  ar
    43    32    33  ar
    44    33    34   1
    45    34    43   1
    46    35    37  am
    47    37    38   1
    48    37    39   2
    49    37    40   2
    50    38    41   1
    51    38    42   1
    52    41    42   1
    53    43    44   1
    54    44    45   1
    55    45    46   1
    56    46    47   1
    57    46    48   1
    58    46    49   1
    59     4    54   1
    60     5    55   1
    61     5    56   1
    62     6    57   1
    63     9    58   1
    64    10    59   1
    65    18    60   1
    66    18    61   1
    67    19    62   1
    68    19    63   1
    69    19    64   1
    70    20    65   1
    71    20    66   1
    72    20    67   1
    73    21    68   1
    74    24    69   1
    75    25    70   1
    76    25    71   1
    77    26    72   1
    78    29    73   1
    79    30    74   1
    80    31    75   1
    81    32    76   1
    82    34    77   1
    83    34    78   1
    84    35    79   1
    85    38    80   1
    86    41    81   1
    87    41    82   1
    88    42    83   1
    89    42    84   1
    90    43    85   1
    91    43    86   1
    92    44    87   1
    93    44    88   1
    94    45    89   1
    95    45    90   1
    96    47    91   1
    97    47    92   1
    98    48    93   1
    99    48    94   1
   100    48    95   1
   101    49    96   1
   102    49    97   1
   103    49    98   1
   104    50    99   1
   105    50   100   1
   106    50   101   1
   107    51   102   1
   108    51   103   1
   109    51   104   1
   110    52   105   1
   111    52   106   1
@<TRIPOS>SUBSTRUCTURE
     1  SU3      1

