@<TRIPOS>MOLECULE
3su3_ligand_069
   106   111
SMALL
GAST_HUCK
****
This file was generated by PARSER (from files_GN.cpp)

@<TRIPOS>ATOM
      1 C         -18.4067  -16.0324   17.3721 C.2         1 SU3       0.2013
      2 N         -17.9135  -13.8318   16.4256 N.am        1 SU3      -0.2469
      3 O         -19.2469  -16.9038   17.1728 O.2         1 SU3      -0.3947
      4 CA        -17.9190  -15.2644   16.2237 C.3         1 SU3       0.1363
      5 CB        -16.4600  -15.6409   15.8621 C.3         1 SU3       0.0206
      6 CG        -15.8501  -14.3182   15.3738 C.3         1 SU3       0.1158
      7 CAF       -19.0178  -13.1039   16.6809 C.2         1 SU3       0.2070
      8 OAG       -20.1089  -13.6552   16.5807 O.2         1 SU3      -0.3942
      9 CAH       -19.0376  -11.6936   17.1139 C.3         1 SU3       0.1378
     10 NAI       -19.6641  -10.9136   16.0845 N.am        1 SU3      -0.2407
     11 CAJ       -19.1377   -9.8280   15.4767 C.2         1 SU3       0.3218
     12 OAK       -19.9875   -9.0619   14.7437 O.3         1 SU3      -0.2633
     13 CAL       -19.7018  -11.3922   18.5244 C.3         1 SU3       0.0025
     14 OAM       -17.8585   -9.4341   15.6904 O.2         1 SU3      -0.3774
     15 CAO       -15.5715  -14.6720   12.8901 C.2         1 SU3       0.4317
     16 OAP       -14.6431  -15.6446   13.0580 O.2         1 SU3      -0.3166
     17 NAQ       -15.9460  -14.2777   11.6448 N.am        1 SU3      -0.2080
     18 CAR       -18.4299  -16.2880   22.5127 C.3         1 SU3      -0.0516
     19 CAS       -19.6068  -15.8901   23.4354 C.3         1 SU3      -0.0651
     20 CAT       -19.0607  -12.3157   19.5976 C.3         1 SU3      -0.0558
     21 NAV       -17.9403  -15.8089   18.5979 N.am        1 SU3      -0.2737
     22 CAX       -18.2717  -16.5691   19.7719 C.3         1 SU3       0.1374
     23 CAY       -17.5698  -17.8197   19.9410 C.2         1 SU3       0.2444
     24 CAZ       -18.6430  -15.7850   21.0616 C.3         1 SU3      -0.0066
     25 CBA       -19.7436  -16.4782   20.2422 C.3         1 SU3      -0.0152
     26 CBB       -15.4737  -14.7707   10.4771 C.2         1 SU3       0.0383
     27 CBC       -16.0882  -14.1006    9.4266 C.ar        1 SU3      -0.0374
     28 CBD       -16.9707  -13.1739    9.9784 C.ar        1 SU3      -0.0293
     29 CBE       -16.8506  -13.3118   11.3620 C.2         1 SU3       0.0366
     30 CBF       -15.9354  -14.2252    8.0347 C.ar        1 SU3      -0.0689
     31 CBG       -16.6955  -13.3849    7.1995 C.ar        1 SU3      -0.0688
     32 CBH       -17.5900  -12.4443    7.7540 C.ar        1 SU3      -0.0606
     33 CBI       -17.7510  -12.3227    9.1596 C.ar        1 SU3      -0.0432
     34 CBJ       -18.6932  -11.3179    9.7209 C.3         1 SU3      -0.0194
     35 NBK       -18.0936  -18.9304   19.4504 N.am        1 SU3      -0.1552
     36 OBL       -16.4811  -17.7950   20.5017 O.2         1 SU3      -0.3404
     37 SBM       -17.4397  -20.4724   19.6367 S.o2        1 SU3       0.0645
     38 CBN       -15.6581  -20.5627   19.3318 C.3         1 SU3       0.1004
     39 OBO       -17.7912  -21.0203   21.0876 O.2         1 SU3      -0.1503
     40 OBP       -18.2004  -21.3927   18.5862 O.2         1 SU3      -0.1503
     41 CBQ       -15.0762  -21.8529   18.7355 C.3         1 SU3      -0.0268
     42 CBR       -15.1714  -20.5842   17.8754 C.3         1 SU3      -0.0268
     43 CBS       -18.0827   -9.8896    9.7172 C.3         1 SU3      -0.0433
     44 CBT       -19.0075   -8.8014   10.3319 C.3         1 SU3      -0.0507
     45 CBU       -19.0239   -8.7801   11.8902 C.3         1 SU3      -0.0453
     46 CBV       -20.0159   -7.7765   12.5890 C.3         1 SU3      -0.0072
     47 CBW       -19.7369   -7.7866   14.1313 C.3         1 SU3       0.0824
     48 CBX       -19.8049   -6.3146   12.0736 C.3         1 SU3      -0.0574
     49 CBY       -21.5045   -8.1910   12.3457 C.3         1 SU3      -0.0574
     50 CBZ       -19.4145   -9.9124   18.9517 C.3         1 SU3      -0.0558
     51 CCA       -21.2528  -11.6208   18.5637 C.3         1 SU3      -0.0558
     52 CD1       -16.6062  -13.2750   16.2154 C.3         1 SU3       0.0677
     53 OD2       -16.1121  -14.0688   13.9825 O.3         1 SU3      -0.2338
     54 H1        -18.5398  -15.4716   15.3435 H           1 SU3       0.0803
     55 H2        -16.4241  -16.4180   15.0946 H           1 SU3       0.0342
     56 H3        -15.8960  -15.9898   16.7334 H           1 SU3       0.0342
     57 H4        -14.7734  -14.2683   15.5634 H           1 SU3       0.0673
     58 H5        -18.0034  -11.3699   17.2257 H           1 SU3       0.0805
     59 H6        -20.5927  -11.1157   15.8901 H           1 SU3       0.1899
     60 H7        -18.3020  -17.3750   22.5549 H           1 SU3       0.0265
     61 H8        -17.5154  -15.8170   22.8888 H           1 SU3       0.0265
     62 H9        -19.3767  -16.1812   24.4636 H           1 SU3       0.0230
     63 H10       -20.5201  -16.4044   23.1247 H           1 SU3       0.0230
     64 H11       -19.7796  -14.8101   23.4050 H           1 SU3       0.0230
     65 H12       -19.4586  -12.1133   20.5951 H           1 SU3       0.0237
     66 H13       -17.9744  -12.2037   19.6232 H           1 SU3       0.0237
     67 H14       -19.3002  -13.3449   19.3409 H           1 SU3       0.0237
     68 H15       -17.2771  -15.1081   18.7019 H           1 SU3       0.1839
     69 H16       -18.6309  -14.6979   20.9643 H           1 SU3       0.0312
     70 H17       -20.1784  -17.3822   20.6750 H           1 SU3       0.0279
     71 H18       -20.3933  -15.8050   19.6805 H           1 SU3       0.0279
     72 H19       -14.7717  -15.5074   10.3684 H           1 SU3       0.0373
     73 H20       -17.3628  -12.7585   12.0520 H           1 SU3       0.0361
     74 H21       -15.2836  -14.9052    7.6385 H           1 SU3       0.0557
     75 H22       -16.5973  -13.4550    6.1837 H           1 SU3       0.0599
     76 H23       -18.1283  -11.8450    7.1238 H           1 SU3       0.0557
     77 H24       -18.9739  -11.5921   10.7376 H           1 SU3       0.0426
     78 H25       -19.6145  -11.3222    9.1326 H           1 SU3       0.0426
     79 H26       -18.9465  -18.8629   18.9880 H           1 SU3       0.2148
     80 H27       -14.9970  -20.0469   20.0298 H           1 SU3       0.0559
     81 H28       -15.7783  -22.6479   18.4764 H           1 SU3       0.0285
     82 H29       -14.0689  -22.1188   19.0635 H           1 SU3       0.0285
     83 H30       -14.2220  -20.0795   17.6824 H           1 SU3       0.0285
     84 H31       -15.9331  -20.6054   17.0933 H           1 SU3       0.0285
     85 H32       -17.8758   -9.6087    8.6801 H           1 SU3       0.0287
     86 H33       -17.1283   -9.8959   10.2508 H           1 SU3       0.0287
     87 H34       -20.0177   -8.9365    9.9437 H           1 SU3       0.0267
     88 H35       -18.6457   -7.8323    9.9800 H           1 SU3       0.0267
     89 H36       -18.0056   -8.5501   12.2182 H           1 SU3       0.0271
     90 H37       -19.2490   -9.7874   12.2470 H           1 SU3       0.0271
     91 H38       -18.7112   -7.4596   14.3251 H           1 SU3       0.0617
     92 H39       -20.3954   -7.0722   14.6319 H           1 SU3       0.0617
     93 H40       -20.0831   -6.2222   11.0229 H           1 SU3       0.0236
     94 H41       -18.7597   -6.0145   12.1789 H           1 SU3       0.0236
     95 H42       -20.4194   -5.6081   12.6372 H           1 SU3       0.0236
     96 H43       -21.6742   -9.2275   12.6451 H           1 SU3       0.0236
     97 H44       -21.7745   -8.0944   11.2935 H           1 SU3       0.0236
     98 H45       -22.1821   -7.5561   12.9217 H           1 SU3       0.0236
     99 H46       -19.9373   -9.2195   18.2894 H           1 SU3       0.0237
    100 H47       -18.3416   -9.6933   18.9122 H           1 SU3       0.0237
    101 H48       -19.7550   -9.7283   19.9752 H           1 SU3       0.0237
    102 H49       -21.5080  -12.6749   18.4357 H           1 SU3       0.0237
    103 H50       -21.7530  -11.0510   17.7793 H           1 SU3       0.0237
    104 H51       -21.6679  -11.3054   19.5242 H           1 SU3       0.0237
    105 H52       -16.1117  -13.1221   17.1791 H           1 SU3       0.0553
    106 H53       -16.6284  -12.3283   15.6681 H           1 SU3       0.0553
@<TRIPOS>BOND
     1     1     3   2
     2     1     4   1
     3    21     1  am
     4     4     2   1
     5     2     7  am
     6     2    52   1
     7     4     5   1
     8     5     6   1
     9     6    52   1
    10     6    53   1
    11     7     8   2
    12     7     9   1
    13     9    10   1
    14     9    13   1
    15    10    11  am
    16    11    12   1
    17    11    14   2
    18    12    47   1
    19    13    20   1
    20    13    50   1
    21    13    51   1
    22    15    16   2
    23    15    17  am
    24    53    15   1
    25    17    26   1
    26    17    29   1
    27    18    19   1
    28    24    18   1
    29    22    21   1
    30    22    23   1
    31    22    24   1
    32    22    25   1
    33    23    35  am
    34    23    36   2
    35    24    25   1
    36    26    27   2
    37    27    28  ar
    38    27    30  ar
    39    28    29   2
    40    28    33  ar
    41    30    31  ar
    42    31    32  ar
    43    32    33  ar
    44    33    34   1
    45    34    43   1
    46    35    37  am
    47    37    38   1
    48    37    39   2
    49    37    40   2
    50    38    41   1
    51    38    42   1
    52    41    42   1
    53    43    44   1
    54    44    45   1
    55    45    46   1
    56    46    47   1
    57    46    48   1
    58    46    49   1
    59     4    54   1
    60     5    55   1
    61     5    56   1
    62     6    57   1
    63     9    58   1
    64    10    59   1
    65    18    60   1
    66    18    61   1
    67    19    62   1
    68    19    63   1
    69    19    64   1
    70    20    65   1
    71    20    66   1
    72    20    67   1
    73    21    68   1
    74    24    69   1
    75    25    70   1
    76    25    71   1
    77    26    72   1
    78    29    73   1
    79    30    74   1
    80    31    75   1
    81    32    76   1
    82    34    77   1
    83    34    78   1
    84    35    79   1
    85    38    80   1
    86    41    81   1
    87    41    82   1
    88    42    83   1
    89    42    84   1
    90    43    85   1
    91    43    86   1
    92    44    87   1
    93    44    88   1
    94    45    89   1
    95    45    90   1
    96    47    91   1
    97    47    92   1
    98    48    93   1
    99    48    94   1
   100    48    95   1
   101    49    96   1
   102    49    97   1
   103    49    98   1
   104    50    99   1
   105    50   100   1
   106    50   101   1
   107    51   102   1
   108    51   103   1
   109    51   104   1
   110    52   105   1
   111    52   106   1
@<TRIPOS>SUBSTRUCTURE
     1  SU3      1

