@<TRIPOS>MOLECULE
3su3_ligand_010
   106   111
SMALL
GAST_HUCK
****
This file was generated by PARSER (from files_GN.cpp)

@<TRIPOS>ATOM
      1 C         -13.6903   -8.6442   13.9335 C.2         1 SU3       0.2013
      2 N         -15.6097  -10.0990   13.7955 N.am        1 SU3      -0.2469
      3 O         -13.5905   -8.3557   12.7454 O.2         1 SU3      -0.3947
      4 CA        -14.2651   -9.9345   14.3055 C.3         1 SU3       0.1363
      5 CB        -13.4475  -11.1297   13.7474 C.3         1 SU3       0.0206
      6 CG        -14.5282  -12.1692   13.4162 C.3         1 SU3       0.1158
      7 CAF       -16.6138   -9.2401   14.0629 C.2         1 SU3       0.2070
      8 OAG       -16.4257   -8.3865   14.9247 O.2         1 SU3      -0.3942
      9 CAH       -17.9262   -9.2076   13.3970 C.3         1 SU3       0.1378
     10 NAI       -18.9254   -9.3099   14.4270 N.am        1 SU3      -0.2407
     11 CAJ       -19.8912  -10.2462   14.5390 C.2         1 SU3       0.3218
     12 OAK       -20.7707  -10.0805   15.5593 O.3         1 SU3      -0.2633
     13 CAL       -18.1798   -7.9508   12.4606 C.3         1 SU3       0.0025
     14 OAM       -20.0279  -11.2634   13.6550 O.2         1 SU3      -0.3774
     15 CAO       -14.2053  -13.8997   15.2222 C.2         1 SU3       0.4317
     16 OAP       -13.0440  -14.3571   14.6957 O.2         1 SU3      -0.3166
     17 NAQ       -14.6833  -14.3914   16.3920 N.am        1 SU3      -0.2080
     18 CAR       -11.1309   -4.7649   15.9454 C.3         1 SU3      -0.0516
     19 CAS       -11.4969   -4.5268   17.4231 C.3         1 SU3      -0.0651
     20 CAT       -17.0141   -7.7879   11.4267 C.3         1 SU3      -0.0558
     21 NAV       -13.3920   -7.7638   14.8782 N.am        1 SU3      -0.2737
     22 CAX       -12.8653   -6.4586   14.6447 C.3         1 SU3       0.1374
     23 CAY       -13.8178   -5.3842   14.4541 C.2         1 SU3       0.2444
     24 CAZ       -11.5847   -6.1657   15.4629 C.3         1 SU3      -0.0066
     25 CBA       -11.4885   -6.3738   13.9460 C.3         1 SU3      -0.0152
     26 CBB       -14.1278  -15.3701   17.1410 C.2         1 SU3       0.0383
     27 CBC       -14.9029  -15.5541   18.2804 C.ar        1 SU3      -0.0374
     28 CBD       -15.9584  -14.6451   18.2182 C.ar        1 SU3      -0.0293
     29 CBE       -15.7949  -13.9494   17.0234 C.2         1 SU3       0.0366
     30 CBF       -14.7671  -16.4394   19.3620 C.ar        1 SU3      -0.0689
     31 CBG       -15.7273  -16.3909   20.3918 C.ar        1 SU3      -0.0688
     32 CBH       -16.7893  -15.4610   20.3379 C.ar        1 SU3      -0.0606
     33 CBI       -16.9280  -14.5659   19.2460 C.ar        1 SU3      -0.0432
     34 CBJ       -18.0553  -13.5935   19.2068 C.3         1 SU3      -0.0194
     35 NBK       -14.1523   -5.0298   13.2259 N.am        1 SU3      -0.1552
     36 OBL       -14.3085   -4.8496   15.4392 O.2         1 SU3      -0.3404
     37 SBM       -15.0984   -3.6923   12.8270 S.o2        1 SU3       0.0645
     38 CBN       -15.3116   -3.6479   11.0321 C.3         1 SU3       0.1004
     39 OBO       -16.5459   -3.8062   13.4764 O.2         1 SU3      -0.1503
     40 OBP       -14.3711   -2.3667   13.3183 O.2         1 SU3      -0.1503
     41 CBQ       -14.8537   -2.4229   10.2253 C.3         1 SU3      -0.0268
     42 CBR       -14.0148   -3.7051   10.2068 C.3         1 SU3      -0.0268
     43 CBS       -19.4027  -14.2687   18.8363 C.3         1 SU3      -0.0433
     44 CBT       -20.6046  -13.2847   18.7717 C.3         1 SU3      -0.0507
     45 CBU       -20.7140  -12.4653   17.4511 C.3         1 SU3      -0.0453
     46 CBV       -21.8897  -11.4196   17.3509 C.3         1 SU3      -0.0072
     47 CBW       -21.9363  -10.8450   15.8924 C.3         1 SU3       0.0824
     48 CBX       -23.2747  -12.0893   17.6355 C.3         1 SU3      -0.0574
     49 CBY       -21.6828  -10.2403   18.3591 C.3         1 SU3      -0.0574
     50 CBZ       -19.4998   -8.1671   11.6440 C.3         1 SU3      -0.0558
     51 CCA       -18.3268   -6.6083   13.2508 C.3         1 SU3      -0.0558
     52 CD1       -15.7233  -11.2906   13.0015 C.3         1 SU3       0.0677
     53 OD2       -14.8900  -12.9086   14.5903 O.3         1 SU3      -0.2338
     54 H1        -14.3047  -10.0377   15.3970 H           1 SU3       0.0803
     55 H2        -12.7307  -11.5064   14.4796 H           1 SU3       0.0342
     56 H3        -12.9016  -10.8707   12.8352 H           1 SU3       0.0342
     57 H4        -14.2334  -12.8493   12.6108 H           1 SU3       0.0673
     58 H5        -18.0038  -10.0763   12.7431 H           1 SU3       0.0805
     59 H6        -18.9231   -8.6158   15.1085 H           1 SU3       0.1899
     60 H7        -10.0476   -4.7067   15.8342 H           1 SU3       0.0265
     61 H8        -11.5715   -3.9708   15.3375 H           1 SU3       0.0265
     62 H9        -11.0483   -3.5949   17.7684 H           1 SU3       0.0230
     63 H10       -11.1255   -5.3391   18.0522 H           1 SU3       0.0230
     64 H11       -12.5798   -4.4561   17.5354 H           1 SU3       0.0230
     65 H12       -17.2193   -6.9778   10.7217 H           1 SU3       0.0237
     66 H13       -16.8724   -8.7064   10.8526 H           1 SU3       0.0237
     67 H14       -16.0777   -7.5543   11.9336 H           1 SU3       0.0237
     68 H15       -13.5535   -8.0229   15.8007 H           1 SU3       0.1839
     69 H16       -11.1842   -7.0179   16.0198 H           1 SU3       0.0312
     70 H17       -11.3087   -5.4869   13.3331 H           1 SU3       0.0279
     71 H18       -11.0194   -7.3133   13.6425 H           1 SU3       0.0279
     72 H19       -13.2763  -15.8936   16.9213 H           1 SU3       0.0373
     73 H20       -16.4132  -13.2076   16.6874 H           1 SU3       0.0361
     74 H21       -13.9909  -17.1032   19.4012 H           1 SU3       0.0557
     75 H22       -15.6452  -17.0237   21.1905 H           1 SU3       0.0599
     76 H23       -17.4612  -15.4364   21.1092 H           1 SU3       0.0557
     77 H24       -17.8493  -12.7935   18.4953 H           1 SU3       0.0426
     78 H25       -18.1461  -13.1201   20.1868 H           1 SU3       0.0426
     79 H26       -13.7521   -5.5203   12.4910 H           1 SU3       0.2148
     80 H27       -16.1253   -4.2328   10.5996 H           1 SU3       0.0559
     81 H28       -14.4106   -1.5896   10.7745 H           1 SU3       0.0285
     82 H29       -15.4006   -2.2212    9.3027 H           1 SU3       0.0285
     83 H30       -14.0611   -4.2743    9.2765 H           1 SU3       0.0285
     84 H31       -13.0655   -3.6417   10.7444 H           1 SU3       0.0285
     85 H32       -19.6270  -15.0234   19.5961 H           1 SU3       0.0287
     86 H33       -19.3048  -14.7871   17.8782 H           1 SU3       0.0287
     87 H34       -20.5460  -12.6040   19.6216 H           1 SU3       0.0267
     88 H35       -21.5128  -13.8809   18.8843 H           1 SU3       0.0267
     89 H36       -20.8149  -13.1849   16.6333 H           1 SU3       0.0271
     90 H37       -19.7690  -11.9397   17.2947 H           1 SU3       0.0271
     91 H38       -22.0832  -11.6562   15.1743 H           1 SU3       0.0617
     92 H39       -22.7849  -10.1653   15.7875 H           1 SU3       0.0617
     93 H40       -23.3530  -12.4159   18.6736 H           1 SU3       0.0236
     94 H41       -23.4229  -12.9580   16.9898 H           1 SU3       0.0236
     95 H42       -24.0928  -11.3878   17.4544 H           1 SU3       0.0236
     96 H43       -20.6993   -9.7824   18.2310 H           1 SU3       0.0236
     97 H44       -21.7646  -10.5828   19.3926 H           1 SU3       0.0236
     98 H45       -22.4374   -9.4656   18.2071 H           1 SU3       0.0236
     99 H46       -20.3615   -8.2472   12.3102 H           1 SU3       0.0237
    100 H47       -19.4431   -9.0816   11.0485 H           1 SU3       0.0237
    101 H48       -19.6838   -7.3339   10.9608 H           1 SU3       0.0237
    102 H49       -17.4080   -6.3680   13.7838 H           1 SU3       0.0237
    103 H50       -19.1410   -6.6634   13.9755 H           1 SU3       0.0237
    104 H51       -18.5400   -5.7787   12.5715 H           1 SU3       0.0237
    105 H52       -15.6649  -11.0377   11.9384 H           1 SU3       0.0553
    106 H53       -16.6501  -11.8402   13.1917 H           1 SU3       0.0553
@<TRIPOS>BOND
     1     1     3   2
     2     1     4   1
     3    21     1  am
     4     4     2   1
     5     2     7  am
     6     2    52   1
     7     4     5   1
     8     5     6   1
     9     6    52   1
    10     6    53   1
    11     7     8   2
    12     7     9   1
    13     9    10   1
    14     9    13   1
    15    10    11  am
    16    11    12   1
    17    11    14   2
    18    12    47   1
    19    13    20   1
    20    13    50   1
    21    13    51   1
    22    15    16   2
    23    15    17  am
    24    53    15   1
    25    17    26   1
    26    17    29   1
    27    18    19   1
    28    24    18   1
    29    22    21   1
    30    22    23   1
    31    22    24   1
    32    22    25   1
    33    23    35  am
    34    23    36   2
    35    24    25   1
    36    26    27   2
    37    27    28  ar
    38    27    30  ar
    39    28    29   2
    40    28    33  ar
    41    30    31  ar
    42    31    32  ar
    43    32    33  ar
    44    33    34   1
    45    34    43   1
    46    35    37  am
    47    37    38   1
    48    37    39   2
    49    37    40   2
    50    38    41   1
    51    38    42   1
    52    41    42   1
    53    43    44   1
    54    44    45   1
    55    45    46   1
    56    46    47   1
    57    46    48   1
    58    46    49   1
    59     4    54   1
    60     5    55   1
    61     5    56   1
    62     6    57   1
    63     9    58   1
    64    10    59   1
    65    18    60   1
    66    18    61   1
    67    19    62   1
    68    19    63   1
    69    19    64   1
    70    20    65   1
    71    20    66   1
    72    20    67   1
    73    21    68   1
    74    24    69   1
    75    25    70   1
    76    25    71   1
    77    26    72   1
    78    29    73   1
    79    30    74   1
    80    31    75   1
    81    32    76   1
    82    34    77   1
    83    34    78   1
    84    35    79   1
    85    38    80   1
    86    41    81   1
    87    41    82   1
    88    42    83   1
    89    42    84   1
    90    43    85   1
    91    43    86   1
    92    44    87   1
    93    44    88   1
    94    45    89   1
    95    45    90   1
    96    47    91   1
    97    47    92   1
    98    48    93   1
    99    48    94   1
   100    48    95   1
   101    49    96   1
   102    49    97   1
   103    49    98   1
   104    50    99   1
   105    50   100   1
   106    50   101   1
   107    51   102   1
   108    51   103   1
   109    51   104   1
   110    52   105   1
   111    52   106   1
@<TRIPOS>SUBSTRUCTURE
     1  SU3      1

