@<TRIPOS>MOLECULE
3su3_ligand_040
   106   111
SMALL
GAST_HUCK
****
This file was generated by PARSER (from files_GN.cpp)

@<TRIPOS>ATOM
      1 C         -12.2902   -7.1209   10.7575 C.2         1 SU3       0.2013
      2 N         -10.2116   -6.3526    9.6311 N.am        1 SU3      -0.2469
      3 O         -13.0332   -8.0866   10.6171 O.2         1 SU3      -0.3947
      4 CA        -11.6619   -6.4759    9.5873 C.3         1 SU3       0.1363
      5 CB        -11.9400   -7.2141    8.2386 C.3         1 SU3       0.0206
      6 CG        -10.6644   -7.0306    7.4108 C.3         1 SU3       0.1158
      7 CAF        -9.5280   -5.5823   10.5037 C.2         1 SU3       0.2070
      8 OAG       -10.1477   -4.7346   11.1371 O.2         1 SU3      -0.3942
      9 CAH        -8.0784   -5.6711   10.7768 C.3         1 SU3       0.1378
     10 NAI        -7.5243   -4.3472   10.6660 N.am        1 SU3      -0.2407
     11 CAJ        -6.5538   -3.9392    9.8226 C.2         1 SU3       0.3218
     12 OAK        -6.1004   -2.6684    9.9757 O.3         1 SU3      -0.2633
     13 CAL        -7.6889   -6.3482   12.1569 C.3         1 SU3       0.0025
     14 OAM        -5.9772   -4.7824    8.9358 O.2         1 SU3      -0.3774
     15 CAO       -11.3713   -5.4971    5.5535 C.2         1 SU3       0.4317
     16 OAP       -12.1622   -6.4430    4.9911 O.2         1 SU3      -0.3166
     17 NAQ       -11.2733   -4.2627    4.9972 N.am        1 SU3      -0.2080
     18 CAR       -13.3210   -9.3993   14.5335 C.3         1 SU3      -0.0516
     19 CAS       -14.3933  -10.1206   13.6899 C.3         1 SU3      -0.0651
     20 CAT        -6.1415   -6.5957   12.1950 C.3         1 SU3      -0.0558
     21 NAV       -12.1617   -6.6021   11.9739 N.am        1 SU3      -0.2737
     22 CAX       -12.8316   -7.0497   13.1650 C.3         1 SU3       0.1374
     23 CAY       -14.0516   -6.3280   13.5232 C.2         1 SU3       0.2444
     24 CAZ       -12.4322   -8.4650   13.6724 C.3         1 SU3      -0.0066
     25 CBA       -11.8515   -7.2185   14.3543 C.3         1 SU3      -0.0152
     26 CBB       -11.9080   -3.8432    3.8801 C.2         1 SU3       0.0383
     27 CBC       -11.5609   -2.5200    3.6372 C.ar        1 SU3      -0.0374
     28 CBD       -10.6855   -2.1261    4.6478 C.ar        1 SU3      -0.0293
     29 CBE       -10.5244   -3.2395    5.4712 C.2         1 SU3       0.0366
     30 CBF       -11.9407   -1.6385    2.6120 C.ar        1 SU3      -0.0689
     31 CBG       -11.4137   -0.3324    2.6220 C.ar        1 SU3      -0.0688
     32 CBH       -10.5252    0.0717    3.6432 C.ar        1 SU3      -0.0606
     33 CBI       -10.1449   -0.8180    4.6819 C.ar        1 SU3      -0.0432
     34 CBJ        -9.1964   -0.3741    5.7369 C.3         1 SU3      -0.0194
     35 NBK       -14.3119   -5.1598   12.9480 N.am        1 SU3      -0.1552
     36 OBL       -14.8409   -6.7979   14.3333 O.2         1 SU3      -0.3404
     37 SBM       -15.7245   -4.2681   13.1728 S.o2        1 SU3       0.0645
     38 CBN       -16.0519   -3.7250   14.8637 C.3         1 SU3       0.1004
     39 OBO       -15.6246   -2.9843   12.2374 O.2         1 SU3      -0.1503
     40 OBP       -16.9492   -5.1020   12.5988 O.2         1 SU3      -0.1503
     41 CBQ       -14.9366   -3.8230   15.9182 C.3         1 SU3      -0.0268
     42 CBR       -15.3305   -2.4592   15.3459 C.3         1 SU3      -0.0268
     43 CBS        -7.7253   -0.4307    5.2428 C.3         1 SU3      -0.0433
     44 CBT        -6.6801   -0.0092    6.3137 C.3         1 SU3      -0.0507
     45 CBU        -6.3337   -1.1260    7.3439 C.3         1 SU3      -0.0453
     46 CBV        -5.3849   -0.7371    8.5396 C.3         1 SU3      -0.0072
     47 CBW        -4.9894   -2.0369    9.3215 C.3         1 SU3       0.0824
     48 CBX        -4.0647   -0.0769    8.0240 C.3         1 SU3      -0.0574
     49 CBY        -6.0966    0.2483    9.5231 C.3         1 SU3      -0.0574
     50 CBZ        -8.0605   -5.4720   13.4016 C.3         1 SU3      -0.0558
     51 CCA        -8.3764   -7.7498   12.2894 C.3         1 SU3      -0.0558
     52 CD1        -9.5899   -6.9934    8.5043 C.3         1 SU3       0.0677
     53 OD2       -10.6686   -5.7958    6.6790 O.3         1 SU3      -0.2338
     54 H1        -12.0851   -5.4694    9.4994 H           1 SU3       0.0803
     55 H2        -12.8216   -6.8160    7.7300 H           1 SU3       0.0342
     56 H3        -12.0826   -8.2896    8.3744 H           1 SU3       0.0342
     57 H4        -10.4890   -7.8647    6.7248 H           1 SU3       0.0673
     58 H5         -7.6134   -6.3066   10.0214 H           1 SU3       0.0805
     59 H6         -7.8593   -3.6828   11.2892 H           1 SU3       0.1899
     60 H7        -12.6747  -10.1529   14.9895 H           1 SU3       0.0265
     61 H8        -13.8119   -8.8607   15.3470 H           1 SU3       0.0265
     62 H9        -14.9585  -10.8021   14.3276 H           1 SU3       0.0230
     63 H10       -13.9246  -10.6972   12.8917 H           1 SU3       0.0230
     64 H11       -15.0830   -9.3984   13.2510 H           1 SU3       0.0230
     65 H12        -5.8409   -7.0696   13.1327 H           1 SU3       0.0237
     66 H13        -5.5887   -5.6612   12.0978 H           1 SU3       0.0237
     67 H14        -5.8364   -7.2529   11.3774 H           1 SU3       0.0237
     68 H15       -11.6507   -5.7868   12.0589 H           1 SU3       0.1839
     69 H16       -11.7201   -8.9795   13.0188 H           1 SU3       0.0312
     70 H17       -12.2251   -7.0292   15.3656 H           1 SU3       0.0279
     71 H18       -10.7869   -7.0776   14.1744 H           1 SU3       0.0279
     72 H19       -12.5406   -4.3988    3.2970 H           1 SU3       0.0373
     73 H20        -9.9313   -3.2738    6.3026 H           1 SU3       0.0361
     74 H21       -12.5824   -1.9368    1.8750 H           1 SU3       0.0557
     75 H22       -11.6757    0.3267    1.8863 H           1 SU3       0.0599
     76 H23       -10.1573    1.0258    3.6252 H           1 SU3       0.0557
     77 H24        -9.3078   -0.9911    6.6292 H           1 SU3       0.0426
     78 H25        -9.4427    0.6491    6.0336 H           1 SU3       0.0426
     79 H26       -13.6692   -4.8103   12.3099 H           1 SU3       0.2148
     80 H27       -17.0728   -3.8152   15.2354 H           1 SU3       0.0559
     81 H28       -13.9486   -4.1608   15.6005 H           1 SU3       0.0285
     82 H29       -15.2481   -3.9928   16.9488 H           1 SU3       0.0285
     83 H30       -15.9040   -1.8145   16.0133 H           1 SU3       0.0285
     84 H31       -14.5790   -2.0190   14.6883 H           1 SU3       0.0285
     85 H32        -7.6248    0.2454    4.3879 H           1 SU3       0.0287
     86 H33        -7.4939   -1.4402    4.8900 H           1 SU3       0.0287
     87 H34        -7.0404    0.8846    6.8258 H           1 SU3       0.0267
     88 H35        -5.7642    0.2634    5.7831 H           1 SU3       0.0267
     89 H36        -5.8734   -1.9446    6.7827 H           1 SU3       0.0271
     90 H37        -7.2644   -1.5157    7.7588 H           1 SU3       0.0271
     91 H38        -4.4881   -2.7375    8.6479 H           1 SU3       0.0617
     92 H39        -4.2753   -1.7946   10.1136 H           1 SU3       0.0617
     93 H40        -4.2633    0.8896    7.5581 H           1 SU3       0.0236
     94 H41        -3.5739   -0.7184    7.2887 H           1 SU3       0.0236
     95 H42        -3.3659    0.0943    8.8466 H           1 SU3       0.0236
     96 H43        -7.0463   -0.1649    9.8702 H           1 SU3       0.0236
     97 H44        -6.3001    1.2064    9.0436 H           1 SU3       0.0236
     98 H45        -5.4704    0.4410   10.3976 H           1 SU3       0.0236
     99 H46        -9.1345   -5.3033   13.4626 H           1 SU3       0.0237
    100 H47        -7.5664   -4.5002   13.3573 H           1 SU3       0.0237
    101 H48        -7.7491   -5.9556   14.3300 H           1 SU3       0.0237
    102 H49        -8.1071   -8.3889   11.4443 H           1 SU3       0.0237
    103 H50        -9.4603   -7.6586   12.3134 H           1 SU3       0.0237
    104 H51        -8.0639   -8.2567   13.2059 H           1 SU3       0.0237
    105 H52        -9.2857   -8.0068    8.7826 H           1 SU3       0.0553
    106 H53        -8.7260   -6.4525    8.1080 H           1 SU3       0.0553
@<TRIPOS>BOND
     1     1     3   2
     2     1     4   1
     3    21     1  am
     4     4     2   1
     5     2     7  am
     6     2    52   1
     7     4     5   1
     8     5     6   1
     9     6    52   1
    10     6    53   1
    11     7     8   2
    12     7     9   1
    13     9    10   1
    14     9    13   1
    15    10    11  am
    16    11    12   1
    17    11    14   2
    18    12    47   1
    19    13    20   1
    20    13    50   1
    21    13    51   1
    22    15    16   2
    23    15    17  am
    24    53    15   1
    25    17    26   1
    26    17    29   1
    27    18    19   1
    28    24    18   1
    29    22    21   1
    30    22    23   1
    31    22    24   1
    32    22    25   1
    33    23    35  am
    34    23    36   2
    35    24    25   1
    36    26    27   2
    37    27    28  ar
    38    27    30  ar
    39    28    29   2
    40    28    33  ar
    41    30    31  ar
    42    31    32  ar
    43    32    33  ar
    44    33    34   1
    45    34    43   1
    46    35    37  am
    47    37    38   1
    48    37    39   2
    49    37    40   2
    50    38    41   1
    51    38    42   1
    52    41    42   1
    53    43    44   1
    54    44    45   1
    55    45    46   1
    56    46    47   1
    57    46    48   1
    58    46    49   1
    59     4    54   1
    60     5    55   1
    61     5    56   1
    62     6    57   1
    63     9    58   1
    64    10    59   1
    65    18    60   1
    66    18    61   1
    67    19    62   1
    68    19    63   1
    69    19    64   1
    70    20    65   1
    71    20    66   1
    72    20    67   1
    73    21    68   1
    74    24    69   1
    75    25    70   1
    76    25    71   1
    77    26    72   1
    78    29    73   1
    79    30    74   1
    80    31    75   1
    81    32    76   1
    82    34    77   1
    83    34    78   1
    84    35    79   1
    85    38    80   1
    86    41    81   1
    87    41    82   1
    88    42    83   1
    89    42    84   1
    90    43    85   1
    91    43    86   1
    92    44    87   1
    93    44    88   1
    94    45    89   1
    95    45    90   1
    96    47    91   1
    97    47    92   1
    98    48    93   1
    99    48    94   1
   100    48    95   1
   101    49    96   1
   102    49    97   1
   103    49    98   1
   104    50    99   1
   105    50   100   1
   106    50   101   1
   107    51   102   1
   108    51   103   1
   109    51   104   1
   110    52   105   1
   111    52   106   1
@<TRIPOS>SUBSTRUCTURE
     1  SU3      1

