@<TRIPOS>MOLECULE
3su3_ligand_051
   106   111
SMALL
GAST_HUCK
****
This file was generated by PARSER (from files_GN.cpp)

@<TRIPOS>ATOM
      1 C          -6.7246   -3.3001    8.4589 C.2         1 SU3       0.2013
      2 N          -5.5062   -1.1188    8.7152 N.am        1 SU3      -0.2469
      3 O          -7.3401   -4.0188    7.6784 O.2         1 SU3      -0.3947
      4 CA         -5.8954   -2.2405    7.8768 C.3         1 SU3       0.1363
      5 CB         -4.5593   -2.8491    7.3812 C.3         1 SU3       0.0206
      6 CG         -3.5643   -1.6913    7.4965 C.3         1 SU3       0.1158
      7 CAF        -6.3769   -0.2364    9.2461 C.2         1 SU3       0.2070
      8 OAG        -7.5483   -0.3143    8.8968 O.2         1 SU3      -0.3942
      9 CAH        -6.0634    0.8485   10.1969 C.3         1 SU3       0.1378
     10 NAI        -6.4450    2.1099    9.6062 N.am        1 SU3      -0.2407
     11 CAJ        -5.6495    3.1995    9.4747 C.2         1 SU3       0.3218
     12 OAK        -6.2262    4.3741    9.1058 O.3         1 SU3      -0.2633
     13 CAL        -6.6671    0.6570   11.6588 C.3         1 SU3       0.0025
     14 OAM        -4.3358    3.1638    9.8047 O.2         1 SU3      -0.3774
     15 CAO        -3.2055   -1.0704    5.0843 C.2         1 SU3       0.4317
     16 OAP        -2.6192   -2.2594    4.7986 O.2         1 SU3      -0.3166
     17 NAQ        -3.3778   -0.1382    4.1122 N.am        1 SU3      -0.2080
     18 CAR        -7.1621   -6.9730   11.7850 C.3         1 SU3      -0.0516
     19 CAS        -7.4702   -7.1764   13.2900 C.3         1 SU3      -0.0651
     20 CAT        -5.7927   -0.3757   12.4509 C.3         1 SU3      -0.0558
     21 NAV        -6.7658   -3.5488    9.7642 N.am        1 SU3      -0.2737
     22 CAX        -7.4832   -4.6175   10.4147 C.3         1 SU3       0.1374
     23 CAY        -8.7351   -5.0619    9.8285 C.2         1 SU3       0.2444
     24 CAZ        -6.7158   -5.5268   11.4119 C.3         1 SU3      -0.0066
     25 CBA        -7.5767   -4.3729   11.9409 C.3         1 SU3      -0.0152
     26 CBB        -3.0028   -0.2629    2.8208 C.2         1 SU3       0.0383
     27 CBC        -3.3503    0.8989    2.1388 C.ar        1 SU3      -0.0374
     28 CBD        -3.9647    1.7495    3.0558 C.ar        1 SU3      -0.0293
     29 CBE        -3.9612    1.0743    4.2720 C.2         1 SU3       0.0366
     30 CBF        -3.1675    1.2662    0.7997 C.ar        1 SU3      -0.0689
     31 CBG        -3.6185    2.5362    0.3858 C.ar        1 SU3      -0.0688
     32 CBH        -4.2419    3.4059    1.3085 C.ar        1 SU3      -0.0606
     33 CBI        -4.4356    3.0287    2.6609 C.ar        1 SU3      -0.0432
     34 CBJ        -5.0900    3.9635    3.6142 C.3         1 SU3      -0.0194
     35 NBK        -8.7335   -6.0966    9.0013 N.am        1 SU3      -0.1552
     36 OBL        -9.7495   -4.4118   10.0470 O.2         1 SU3      -0.3404
     37 SBM       -10.0764   -6.6959    8.1703 S.o2        1 SU3       0.0645
     38 CBN       -11.0918   -7.9446    8.9981 C.3         1 SU3       0.1004
     39 OBO       -10.9969   -5.5083    7.6445 O.2         1 SU3      -0.1503
     40 OBP        -9.5137   -7.3227    6.8233 O.2         1 SU3      -0.1503
     41 CBQ       -10.3914   -8.9484    9.9282 C.3         1 SU3      -0.0268
     42 CBR       -11.2914   -7.8503   10.5180 C.3         1 SU3      -0.0268
     43 CBS        -4.0958    5.0289    4.1524 C.3         1 SU3      -0.0433
     44 CBT        -4.7201    6.0272    5.1662 C.3         1 SU3      -0.0507
     45 CBU        -4.9330    5.4484    6.5979 C.3         1 SU3      -0.0453
     46 CBV        -5.6837    6.3608    7.6381 C.3         1 SU3      -0.0072
     47 CBW        -5.6168    5.6797    9.0510 C.3         1 SU3       0.0824
     48 CBX        -5.0066    7.7677    7.7464 C.3         1 SU3      -0.0574
     49 CBY        -7.1846    6.5507    7.2432 C.3         1 SU3      -0.0574
     50 CBZ        -6.6197    2.0074   12.4533 C.3         1 SU3      -0.0558
     51 CCA        -8.1507    0.1562   11.6783 C.3         1 SU3      -0.0558
     52 CD1        -4.0818   -0.9579    8.7436 C.3         1 SU3       0.0677
     53 OD2        -3.6283   -0.8203    6.3540 O.3         1 SU3      -0.2338
     54 H1         -6.4282   -1.8319    7.0107 H           1 SU3       0.0803
     55 H2         -4.6447   -3.2231    6.3580 H           1 SU3       0.0342
     56 H3         -4.2225   -3.6655    8.0270 H           1 SU3       0.0342
     57 H4         -2.5382   -2.0395    7.6445 H           1 SU3       0.0673
     58 H5         -4.9875    0.8722   10.3546 H           1 SU3       0.0805
     59 H6         -7.3811    2.2243    9.3826 H           1 SU3       0.1899
     60 H7         -8.0485   -7.2767   11.2249 H           1 SU3       0.0265
     61 H8         -6.3435   -7.6538   11.5083 H           1 SU3       0.0265
     62 H9         -7.6020   -8.2480   13.4882 H           1 SU3       0.0230
     63 H10        -8.4004   -6.6540   13.5550 H           1 SU3       0.0230
     64 H11        -6.6483   -6.7964   13.9050 H           1 SU3       0.0230
     65 H12        -6.1888   -0.5463   13.4567 H           1 SU3       0.0237
     66 H13        -4.7653   -0.0152   12.5517 H           1 SU3       0.0237
     67 H14        -5.7553   -1.3324   11.9327 H           1 SU3       0.0237
     68 H15        -6.2498   -2.9558   10.3373 H           1 SU3       0.1839
     69 H16        -5.6428   -5.3356   11.4809 H           1 SU3       0.0312
     70 H17        -8.5033   -4.6639   12.4491 H           1 SU3       0.0279
     71 H18        -6.9989   -3.5535   12.3688 H           1 SU3       0.0279
     72 H19        -2.5366   -1.0687    2.3956 H           1 SU3       0.0373
     73 H20        -4.3393    1.4376    5.1491 H           1 SU3       0.0361
     74 H21        -2.7133    0.6338    0.1380 H           1 SU3       0.0557
     75 H22        -3.4935    2.8278   -0.5856 H           1 SU3       0.0599
     76 H23        -4.5588    4.3236    0.9802 H           1 SU3       0.0557
     77 H24        -5.5198    3.4074    4.4468 H           1 SU3       0.0426
     78 H25        -5.9231    4.4640    3.1123 H           1 SU3       0.0426
     79 H26        -7.8953   -6.5671    8.8611 H           1 SU3       0.2148
     80 H27       -11.9361   -8.3646    8.4439 H           1 SU3       0.0559
     81 H28        -9.3248   -8.8202   10.0977 H           1 SU3       0.0285
     82 H29       -10.8192   -9.9519    9.9577 H           1 SU3       0.0285
     83 H30       -12.2616   -8.1962   10.8885 H           1 SU3       0.0285
     84 H31       -10.7768   -7.0415   11.0399 H           1 SU3       0.0285
     85 H32        -3.7192    5.6056    3.3012 H           1 SU3       0.0287
     86 H33        -3.2383    4.5324    4.6166 H           1 SU3       0.0287
     87 H34        -5.6639    6.3925    4.7589 H           1 SU3       0.0267
     88 H35        -4.0406    6.8800    5.2378 H           1 SU3       0.0267
     89 H36        -3.9440    5.2030    6.9954 H           1 SU3       0.0271
     90 H37        -5.4806    4.5084    6.5146 H           1 SU3       0.0271
     91 H38        -4.5740    5.6354    9.3819 H           1 SU3       0.0617
     92 H39        -6.1488    6.2972    9.7809 H           1 SU3       0.0617
     93 H40        -5.1185    8.3315    6.8193 H           1 SU3       0.0236
     94 H41        -3.9401    7.6675    7.9586 H           1 SU3       0.0236
     95 H42        -5.4585    8.3593    8.5457 H           1 SU3       0.0236
     96 H43        -7.6771    5.5855    7.1107 H           1 SU3       0.0236
     97 H44        -7.2805    7.1116    6.3128 H           1 SU3       0.0236
     98 H45        -7.7224    7.1028    8.0175 H           1 SU3       0.0236
     99 H46        -7.2850    2.7471   12.0010 H           1 SU3       0.0237
    100 H47        -5.6089    2.4187   12.4641 H           1 SU3       0.0237
    101 H48        -6.9441    1.8719   13.4849 H           1 SU3       0.0237
    102 H49        -8.2298   -0.8753   11.3237 H           1 SU3       0.0237
    103 H50        -8.7762    0.7891   11.0441 H           1 SU3       0.0237
    104 H51        -8.5589    0.1791   12.6889 H           1 SU3       0.0237
    105 H52        -3.6787   -1.4105    9.6539 H           1 SU3       0.0553
    106 H53        -3.7635    0.0828    8.6796 H           1 SU3       0.0553
@<TRIPOS>BOND
     1     1     3   2
     2     1     4   1
     3    21     1  am
     4     4     2   1
     5     2     7  am
     6     2    52   1
     7     4     5   1
     8     5     6   1
     9     6    52   1
    10     6    53   1
    11     7     8   2
    12     7     9   1
    13     9    10   1
    14     9    13   1
    15    10    11  am
    16    11    12   1
    17    11    14   2
    18    12    47   1
    19    13    20   1
    20    13    50   1
    21    13    51   1
    22    15    16   2
    23    15    17  am
    24    53    15   1
    25    17    26   1
    26    17    29   1
    27    18    19   1
    28    24    18   1
    29    22    21   1
    30    22    23   1
    31    22    24   1
    32    22    25   1
    33    23    35  am
    34    23    36   2
    35    24    25   1
    36    26    27   2
    37    27    28  ar
    38    27    30  ar
    39    28    29   2
    40    28    33  ar
    41    30    31  ar
    42    31    32  ar
    43    32    33  ar
    44    33    34   1
    45    34    43   1
    46    35    37  am
    47    37    38   1
    48    37    39   2
    49    37    40   2
    50    38    41   1
    51    38    42   1
    52    41    42   1
    53    43    44   1
    54    44    45   1
    55    45    46   1
    56    46    47   1
    57    46    48   1
    58    46    49   1
    59     4    54   1
    60     5    55   1
    61     5    56   1
    62     6    57   1
    63     9    58   1
    64    10    59   1
    65    18    60   1
    66    18    61   1
    67    19    62   1
    68    19    63   1
    69    19    64   1
    70    20    65   1
    71    20    66   1
    72    20    67   1
    73    21    68   1
    74    24    69   1
    75    25    70   1
    76    25    71   1
    77    26    72   1
    78    29    73   1
    79    30    74   1
    80    31    75   1
    81    32    76   1
    82    34    77   1
    83    34    78   1
    84    35    79   1
    85    38    80   1
    86    41    81   1
    87    41    82   1
    88    42    83   1
    89    42    84   1
    90    43    85   1
    91    43    86   1
    92    44    87   1
    93    44    88   1
    94    45    89   1
    95    45    90   1
    96    47    91   1
    97    47    92   1
    98    48    93   1
    99    48    94   1
   100    48    95   1
   101    49    96   1
   102    49    97   1
   103    49    98   1
   104    50    99   1
   105    50   100   1
   106    50   101   1
   107    51   102   1
   108    51   103   1
   109    51   104   1
   110    52   105   1
   111    52   106   1
@<TRIPOS>SUBSTRUCTURE
     1  SU3      1

