@<TRIPOS>MOLECULE
3su3_ligand_086
   106   111
SMALL
GAST_HUCK
****
This file was generated by PARSER (from files_GN.cpp)

@<TRIPOS>ATOM
      1 C         -16.5287   -5.5198    8.4366 C.2         1 SU3       0.2013
      2 N         -14.5369   -4.2156    7.9107 N.am        1 SU3      -0.2469
      3 O         -17.2966   -4.6316    8.0797 O.2         1 SU3      -0.3947
      4 CA        -15.1703   -5.1510    8.8184 C.3         1 SU3       0.1363
      5 CB        -15.1772   -4.4524   10.2018 C.3         1 SU3       0.0206
      6 CG        -14.0645   -3.4050   10.0767 C.3         1 SU3       0.1158
      7 CAF       -14.2932   -4.4751    6.6100 C.2         1 SU3       0.2070
      8 OAG       -14.4135   -5.6353    6.2295 O.2         1 SU3      -0.3942
      9 CAH       -13.9095   -3.4863    5.5888 C.3         1 SU3       0.1378
     10 NAI       -12.5788   -3.8003    5.1305 N.am        1 SU3      -0.2407
     11 CAJ       -11.5241   -2.9528    5.0891 C.2         1 SU3       0.3218
     12 OAK       -10.4198   -3.3575    4.4066 O.3         1 SU3      -0.2633
     13 CAL       -14.9269   -3.3277    4.3774 C.3         1 SU3       0.0025
     14 OAM       -11.5981   -1.6972    5.5938 O.2         1 SU3      -0.3774
     15 CAO       -12.2458   -4.3927   11.5250 C.2         1 SU3       0.4317
     16 OAP       -12.9896   -4.3254   12.6563 O.2         1 SU3      -0.3166
     17 NAQ       -10.9533   -4.8062   11.5667 N.am        1 SU3      -0.2080
     18 CAR       -19.6719   -7.6088    5.9221 C.3         1 SU3      -0.0516
     19 CAS       -19.6924   -6.2733    5.1459 C.3         1 SU3      -0.0651
     20 CAT       -16.3709   -3.0414    4.9091 C.3         1 SU3      -0.0558
     21 NAV       -16.9485   -6.7729    8.5610 N.am        1 SU3      -0.2737
     22 CAX       -18.2564   -7.2217    8.2091 C.3         1 SU3       0.1374
     23 CAY       -19.3547   -6.7294    9.0216 C.2         1 SU3       0.2444
     24 CAZ       -18.3765   -7.7537    6.7565 C.3         1 SU3      -0.0066
     25 CBA       -18.3446   -8.7411    7.9319 C.3         1 SU3      -0.0152
     26 CBB       -10.2633   -5.1623   12.6722 C.2         1 SU3       0.0383
     27 CBC        -8.9463   -5.4186   12.3138 C.ar        1 SU3      -0.0374
     28 CBD        -8.8461   -5.2477   10.9333 C.ar        1 SU3      -0.0293
     29 CBE       -10.1171   -4.8726   10.5045 C.2         1 SU3       0.0366
     30 CBF        -7.8294   -5.7661   13.0915 C.ar        1 SU3      -0.0689
     31 CBG        -6.5915   -5.9417   12.4424 C.ar        1 SU3      -0.0688
     32 CBH        -6.4894   -5.7770   11.0439 C.ar        1 SU3      -0.0606
     33 CBI        -7.6156   -5.4340   10.2546 C.ar        1 SU3      -0.0432
     34 CBJ        -7.4915   -5.3260    8.7737 C.3         1 SU3      -0.0194
     35 NBK       -19.4034   -7.0584   10.3031 N.am        1 SU3      -0.1552
     36 OBL       -20.1147   -5.9017    8.5393 O.2         1 SU3      -0.3404
     37 SBM       -20.5865   -6.5346   11.3873 S.o2        1 SU3       0.0645
     38 CBN       -20.1494   -6.7100   13.1306 C.3         1 SU3       0.1004
     39 OBO       -20.8878   -4.9856   11.1799 O.2         1 SU3      -0.1503
     40 OBP       -21.9270   -7.3545   11.1342 O.2         1 SU3      -0.1503
     41 CBQ       -18.8078   -7.3427   13.5340 C.3         1 SU3      -0.0268
     42 CBR       -19.0011   -5.8236   13.6460 C.3         1 SU3      -0.0268
     43 CBS        -6.6482   -4.1093    8.3025 C.3         1 SU3      -0.0433
     44 CBT        -6.5736   -3.9535    6.7556 C.3         1 SU3      -0.0507
     45 CBU        -7.8660   -3.3834    6.0931 C.3         1 SU3      -0.0453
     46 CBV        -7.8996   -3.2829    4.5221 C.3         1 SU3      -0.0072
     47 CBW        -9.2410   -2.5937    4.0880 C.3         1 SU3       0.0824
     48 CBX        -6.7183   -2.4062    3.9905 C.3         1 SU3      -0.0574
     49 CBY        -7.8231   -4.6963    3.8586 C.3         1 SU3      -0.0574
     50 CBZ       -14.4940   -2.1022    3.4973 C.3         1 SU3      -0.0558
     51 CCA       -14.9918   -4.5795    3.4379 C.3         1 SU3      -0.0558
     52 CD1       -14.1401   -3.0144    8.5884 C.3         1 SU3       0.0677
     53 OD2       -12.7675   -3.9577   10.3468 O.3         1 SU3      -0.2338
     54 H1        -14.5354   -6.0435    8.8854 H           1 SU3       0.0803
     55 H2        -14.9927   -5.1646   11.0089 H           1 SU3       0.0342
     56 H3        -16.1217   -3.9351   10.4047 H           1 SU3       0.0342
     57 H4        -14.2415   -2.5370   10.7194 H           1 SU3       0.0673
     58 H5        -13.8924   -2.5052    6.0655 H           1 SU3       0.0805
     59 H6        -12.4511   -4.6731    4.7256 H           1 SU3       0.1899
     60 H7        -19.7137   -8.4340    5.2074 H           1 SU3       0.0265
     61 H8        -20.5595   -7.6723    6.5549 H           1 SU3       0.0265
     62 H9        -20.6140   -6.1996    4.5642 H           1 SU3       0.0230
     63 H10       -18.8419   -6.2146    4.4604 H           1 SU3       0.0230
     64 H11       -19.6467   -5.4324    5.8387 H           1 SU3       0.0230
     65 H12       -17.0572   -2.8339    4.0873 H           1 SU3       0.0237
     66 H13       -16.3731   -2.1823    5.5819 H           1 SU3       0.0237
     67 H14       -16.7597   -3.9018    5.4535 H           1 SU3       0.0237
     68 H15       -16.3211   -7.4366    8.8900 H           1 SU3       0.1839
     69 H16       -17.4423   -7.7591    6.1862 H           1 SU3       0.0312
     70 H17       -19.2894   -9.2529    8.1289 H           1 SU3       0.0279
     71 H18       -17.4169   -9.3118    8.0181 H           1 SU3       0.0279
     72 H19       -10.6263   -5.1956   13.6287 H           1 SU3       0.0373
     73 H20       -10.3668   -4.6460    9.5400 H           1 SU3       0.0361
     74 H21        -7.9097   -5.8791   14.1037 H           1 SU3       0.0557
     75 H22        -5.7636   -6.1910   12.9873 H           1 SU3       0.0599
     76 H23        -5.5784   -5.9173   10.6026 H           1 SU3       0.0557
     77 H24        -8.4784   -5.2697    8.3182 H           1 SU3       0.0426
     78 H25        -7.0309   -6.2418    8.3973 H           1 SU3       0.0426
     79 H26       -18.7271   -7.6677   10.6391 H           1 SU3       0.2148
     80 H27       -20.9625   -6.8256   13.8494 H           1 SU3       0.0559
     81 H28       -18.1323   -7.6592   12.7407 H           1 SU3       0.0285
     82 H29       -18.8049   -7.8810   14.4821 H           1 SU3       0.0285
     83 H30       -19.0963   -5.4493   14.6662 H           1 SU3       0.0285
     84 H31       -18.4539   -5.2322   12.9097 H           1 SU3       0.0285
     85 H32        -5.6269   -4.2351    8.6750 H           1 SU3       0.0287
     86 H33        -7.0456   -3.1904    8.7419 H           1 SU3       0.0287
     87 H34        -6.3243   -4.9238    6.3216 H           1 SU3       0.0267
     88 H35        -5.7462   -3.2742    6.5372 H           1 SU3       0.0267
     89 H36        -8.0242   -2.3829    6.5074 H           1 SU3       0.0271
     90 H37        -8.7146   -3.9934    6.4086 H           1 SU3       0.0271
     91 H38        -9.2977   -1.5914    4.5242 H           1 SU3       0.0617
     92 H39        -9.2508   -2.4653    3.0031 H           1 SU3       0.0617
     93 H40        -5.7559   -2.8816    4.1810 H           1 SU3       0.0236
     94 H41        -6.7174   -1.4258    4.4718 H           1 SU3       0.0236
     95 H42        -6.8009   -2.2545    2.9122 H           1 SU3       0.0236
     96 H43        -8.5948   -5.3569    4.2587 H           1 SU3       0.0236
     97 H44        -6.8532   -5.1633    4.0325 H           1 SU3       0.0236
     98 H45        -7.9648   -4.6242    2.7779 H           1 SU3       0.0236
     99 H46       -13.5140   -2.2679    3.0451 H           1 SU3       0.0237
    100 H47       -14.4421   -1.1880    4.0963 H           1 SU3       0.0237
    101 H48       -15.2071   -1.9266    2.6853 H           1 SU3       0.0237
    102 H49       -15.4158   -5.4432    3.9501 H           1 SU3       0.0237
    103 H50       -13.9991   -4.8502    3.0714 H           1 SU3       0.0237
    104 H51       -15.6250   -4.3788    2.5701 H           1 SU3       0.0237
    105 H52       -14.8876   -2.2312    8.4266 H           1 SU3       0.0553
    106 H53       -13.1628   -2.6504    8.2604 H           1 SU3       0.0553
@<TRIPOS>BOND
     1     1     3   2
     2     1     4   1
     3    21     1  am
     4     4     2   1
     5     2     7  am
     6     2    52   1
     7     4     5   1
     8     5     6   1
     9     6    52   1
    10     6    53   1
    11     7     8   2
    12     7     9   1
    13     9    10   1
    14     9    13   1
    15    10    11  am
    16    11    12   1
    17    11    14   2
    18    12    47   1
    19    13    20   1
    20    13    50   1
    21    13    51   1
    22    15    16   2
    23    15    17  am
    24    53    15   1
    25    17    26   1
    26    17    29   1
    27    18    19   1
    28    24    18   1
    29    22    21   1
    30    22    23   1
    31    22    24   1
    32    22    25   1
    33    23    35  am
    34    23    36   2
    35    24    25   1
    36    26    27   2
    37    27    28  ar
    38    27    30  ar
    39    28    29   2
    40    28    33  ar
    41    30    31  ar
    42    31    32  ar
    43    32    33  ar
    44    33    34   1
    45    34    43   1
    46    35    37  am
    47    37    38   1
    48    37    39   2
    49    37    40   2
    50    38    41   1
    51    38    42   1
    52    41    42   1
    53    43    44   1
    54    44    45   1
    55    45    46   1
    56    46    47   1
    57    46    48   1
    58    46    49   1
    59     4    54   1
    60     5    55   1
    61     5    56   1
    62     6    57   1
    63     9    58   1
    64    10    59   1
    65    18    60   1
    66    18    61   1
    67    19    62   1
    68    19    63   1
    69    19    64   1
    70    20    65   1
    71    20    66   1
    72    20    67   1
    73    21    68   1
    74    24    69   1
    75    25    70   1
    76    25    71   1
    77    26    72   1
    78    29    73   1
    79    30    74   1
    80    31    75   1
    81    32    76   1
    82    34    77   1
    83    34    78   1
    84    35    79   1
    85    38    80   1
    86    41    81   1
    87    41    82   1
    88    42    83   1
    89    42    84   1
    90    43    85   1
    91    43    86   1
    92    44    87   1
    93    44    88   1
    94    45    89   1
    95    45    90   1
    96    47    91   1
    97    47    92   1
    98    48    93   1
    99    48    94   1
   100    48    95   1
   101    49    96   1
   102    49    97   1
   103    49    98   1
   104    50    99   1
   105    50   100   1
   106    50   101   1
   107    51   102   1
   108    51   103   1
   109    51   104   1
   110    52   105   1
   111    52   106   1
@<TRIPOS>SUBSTRUCTURE
     1  SU3      1

