@<TRIPOS>MOLECULE
3su3_ligand_004
   106   111
SMALL
GAST_HUCK
****
This file was generated by PARSER (from files_GN.cpp)

@<TRIPOS>ATOM
      1 C         -13.1994   -9.2479   14.1502 C.2         1 SU3       0.2013
      2 N         -15.3869  -10.3179   13.9699 N.am        1 SU3      -0.2469
      3 O         -13.0203   -8.3217   14.9662 O.2         1 SU3      -0.3947
      4 CA        -14.0518  -10.3648   14.5289 C.3         1 SU3       0.1363
      5 CB        -13.4499  -11.7215   14.0870 C.3         1 SU3       0.0206
      6 CG        -14.7041  -12.5765   13.8530 C.3         1 SU3       0.1158
      7 CAF       -16.2527   -9.3107   14.1901 C.2         1 SU3       0.2070
      8 OAG       -15.9815   -8.4956   15.0677 O.2         1 SU3      -0.3942
      9 CAH       -17.5152   -9.0861   13.4701 C.3         1 SU3       0.1378
     10 NAI       -18.6033   -9.1788   14.4100 N.am        1 SU3      -0.2407
     11 CAJ       -19.6655  -10.0095   14.3294 C.2         1 SU3       0.3218
     12 OAK       -20.6856   -9.7913   15.1962 O.3         1 SU3      -0.2633
     13 CAL       -17.5825   -7.7366   12.6350 C.3         1 SU3       0.0025
     14 OAM       -19.7673  -10.9665   13.3774 O.2         1 SU3      -0.3774
     15 CAO       -14.6713  -14.0448   15.9053 C.2         1 SU3       0.4317
     16 OAP       -13.5272  -14.6694   15.5394 O.2         1 SU3      -0.3166
     17 NAQ       -15.2780  -14.3470   17.0823 N.am        1 SU3      -0.2080
     18 CAR        -9.3944   -7.6843   11.2150 C.3         1 SU3      -0.0516
     19 CAS        -8.1047   -8.2527   11.8456 C.3         1 SU3      -0.0651
     20 CAT       -16.4474   -7.7046   11.5571 C.3         1 SU3      -0.0558
     21 NAV       -12.7200   -9.1345   12.9137 N.am        1 SU3      -0.2737
     22 CAX       -11.8828   -8.0775   12.4087 C.3         1 SU3       0.1374
     23 CAY       -11.8671   -6.7978   13.0919 C.2         1 SU3       0.2444
     24 CAZ       -10.6508   -8.5253   11.5631 C.3         1 SU3      -0.0066
     25 CBA       -11.9163   -8.0047   10.8562 C.3         1 SU3      -0.0152
     26 CBB       -14.8566  -15.2615   17.9851 C.2         1 SU3       0.0383
     27 CBC       -15.7586  -15.2946   19.0412 C.ar        1 SU3      -0.0374
     28 CBD       -16.7420  -14.3488   18.7799 C.ar        1 SU3      -0.0293
     29 CBE       -16.4123  -13.7794   17.5529 C.2         1 SU3       0.0366
     30 CBF       -15.8060  -16.1010   20.1958 C.ar        1 SU3      -0.0689
     31 CBG       -16.8810  -15.9307   21.0870 C.ar        1 SU3      -0.0688
     32 CBH       -17.8804  -14.9635   20.8274 C.ar        1 SU3      -0.0606
     33 CBI       -17.8288  -14.1436   19.6733 C.ar        1 SU3      -0.0432
     34 CBJ       -18.9054  -13.1573   19.3967 C.3         1 SU3      -0.0194
     35 NBK       -11.3469   -6.7554   14.3104 N.am        1 SU3      -0.1552
     36 OBL       -12.5204   -5.8598   12.6395 O.2         1 SU3      -0.3404
     37 SBM       -11.4100   -5.4396   15.3757 S.o2        1 SU3       0.0645
     38 CBN       -12.2318   -5.5722   16.9876 C.3         1 SU3       0.1004
     39 OBO        -9.9079   -5.0030   15.6797 O.2         1 SU3      -0.1503
     40 OBP       -11.9711   -4.1410   14.6441 O.2         1 SU3      -0.1503
     41 CBQ       -13.5231   -6.4098   17.0828 C.3         1 SU3      -0.0268
     42 CBR       -12.2251   -6.9072   17.7480 C.3         1 SU3      -0.0268
     43 CBS       -20.1463  -13.8370   18.7552 C.3         1 SU3      -0.0433
     44 CBT       -21.3113  -12.8607   18.4301 C.3         1 SU3      -0.0507
     45 CBU       -21.1325  -12.0663   17.1026 C.3         1 SU3      -0.0453
     46 CBV       -22.2344  -10.9987   16.7449 C.3         1 SU3      -0.0072
     47 CBW       -21.9549  -10.4560   15.2988 C.3         1 SU3       0.0824
     48 CBX       -23.6650  -11.6320   16.7508 C.3         1 SU3      -0.0574
     49 CBY       -22.2081   -9.7991   17.7503 C.3         1 SU3      -0.0574
     50 CBZ       -18.9555   -7.6649   11.8805 C.3         1 SU3      -0.0558
     51 CCA       -17.4629   -6.4466   13.5194 C.3         1 SU3      -0.0558
     52 CD1       -15.6998  -11.5430   13.2884 C.3         1 SU3       0.0677
     53 OD2       -15.2087  -13.0938   15.0956 O.3         1 SU3      -0.2338
     54 H1        -14.1568  -10.3912   15.6243 H           1 SU3       0.0803
     55 H2        -12.7889  -12.1282   14.8579 H           1 SU3       0.0342
     56 H3        -12.8818  -11.6455   13.1486 H           1 SU3       0.0342
     57 H4        -14.5192  -13.3857   13.1435 H           1 SU3       0.0673
     58 H5        -17.6222   -9.8805   12.7294 H           1 SU3       0.0805
     59 H6        -18.6206   -8.5271   15.1311 H           1 SU3       0.1899
     60 H7         -9.2666   -7.6898   10.1286 H           1 SU3       0.0265
     61 H8         -9.5243   -6.6491   11.5375 H           1 SU3       0.0265
     62 H9         -7.2582   -7.6175   11.5749 H           1 SU3       0.0230
     63 H10        -7.9083   -9.2629   11.4785 H           1 SU3       0.0230
     64 H11        -8.1972   -8.2745   12.9322 H           1 SU3       0.0230
     65 H12       -16.5307   -6.8179   10.9268 H           1 SU3       0.0237
     66 H13       -16.4995   -8.5842   10.9136 H           1 SU3       0.0237
     67 H14       -15.4650   -7.6861   12.0286 H           1 SU3       0.0237
     68 H15       -12.9312   -9.8474   12.2808 H           1 SU3       0.1839
     69 H16       -10.5542   -9.6009   11.4309 H           1 SU3       0.0312
     70 H17       -11.8366   -7.0134   10.3954 H           1 SU3       0.0279
     71 H18       -12.4784   -8.7708   10.3197 H           1 SU3       0.0279
     72 H19       -14.0244  -15.8537   17.9087 H           1 SU3       0.0373
     73 H20       -16.9560  -13.0558   17.0771 H           1 SU3       0.0361
     74 H21       -15.0847  -16.8004   20.3747 H           1 SU3       0.0557
     75 H22       -16.9426  -16.5108   21.9264 H           1 SU3       0.0599
     76 H23       -18.6558  -14.8684   21.4892 H           1 SU3       0.0557
     77 H24       -18.5379  -12.3697   18.7378 H           1 SU3       0.0426
     78 H25       -19.1971  -12.6709   20.3322 H           1 SU3       0.0426
     79 H26       -10.8728   -7.5504   14.6188 H           1 SU3       0.2148
     80 H27       -12.2010   -4.6959   17.6496 H           1 SU3       0.0559
     81 H28       -13.8202   -6.9335   16.1479 H           1 SU3       0.0285
     82 H29       -14.2887   -6.0222   17.7811 H           1 SU3       0.0285
     83 H30       -12.2191   -6.8509   18.8455 H           1 SU3       0.0285
     84 H31       -11.7319   -7.7585   17.2694 H           1 SU3       0.0285
     85 H32       -20.5213  -14.5911   19.4533 H           1 SU3       0.0287
     86 H33       -19.8468  -14.3605   17.8427 H           1 SU3       0.0287
     87 H34       -21.4392  -12.1693   19.2641 H           1 SU3       0.0267
     88 H35       -22.2228  -13.4587   18.3536 H           1 SU3       0.0267
     89 H36       -21.0832  -12.8005   16.2930 H           1 SU3       0.0271
     90 H37       -20.1625  -11.5648   17.1336 H           1 SU3       0.0271
     91 H38       -22.0218  -11.2730   14.5735 H           1 SU3       0.0617
     92 H39       -22.7171   -9.7205   15.0251 H           1 SU3       0.0617
     93 H40       -23.9590  -11.9325   17.7575 H           1 SU3       0.0236
     94 H41       -23.6997  -12.5128   16.1062 H           1 SU3       0.0236
     95 H42       -24.4098  -10.9177   16.3922 H           1 SU3       0.0236
     96 H43       -21.2089   -9.3626   17.8099 H           1 SU3       0.0236
     97 H44       -22.4991  -10.1152   18.7531 H           1 SU3       0.0236
     98 H45       -22.9018   -9.0151   17.4376 H           1 SU3       0.0236
     99 H46       -19.7887   -7.6127   12.5848 H           1 SU3       0.0237
    100 H47       -19.1016   -8.5443   11.2490 H           1 SU3       0.0237
    101 H48       -19.0093   -6.7825   11.2401 H           1 SU3       0.0237
    102 H49       -16.4732   -6.3559   13.9660 H           1 SU3       0.0237
    103 H50       -18.2012   -6.4500   14.3230 H           1 SU3       0.0237
    104 H51       -17.6276   -5.5495   12.9188 H           1 SU3       0.0237
    105 H52       -15.5614  -11.4087   12.2129 H           1 SU3       0.0553
    106 H53       -16.7180  -11.8862   13.4883 H           1 SU3       0.0553
@<TRIPOS>BOND
     1     1     3   2
     2     1     4   1
     3    21     1  am
     4     4     2   1
     5     2     7  am
     6     2    52   1
     7     4     5   1
     8     5     6   1
     9     6    52   1
    10     6    53   1
    11     7     8   2
    12     7     9   1
    13     9    10   1
    14     9    13   1
    15    10    11  am
    16    11    12   1
    17    11    14   2
    18    12    47   1
    19    13    20   1
    20    13    50   1
    21    13    51   1
    22    15    16   2
    23    15    17  am
    24    53    15   1
    25    17    26   1
    26    17    29   1
    27    18    19   1
    28    24    18   1
    29    22    21   1
    30    22    23   1
    31    22    24   1
    32    22    25   1
    33    23    35  am
    34    23    36   2
    35    24    25   1
    36    26    27   2
    37    27    28  ar
    38    27    30  ar
    39    28    29   2
    40    28    33  ar
    41    30    31  ar
    42    31    32  ar
    43    32    33  ar
    44    33    34   1
    45    34    43   1
    46    35    37  am
    47    37    38   1
    48    37    39   2
    49    37    40   2
    50    38    41   1
    51    38    42   1
    52    41    42   1
    53    43    44   1
    54    44    45   1
    55    45    46   1
    56    46    47   1
    57    46    48   1
    58    46    49   1
    59     4    54   1
    60     5    55   1
    61     5    56   1
    62     6    57   1
    63     9    58   1
    64    10    59   1
    65    18    60   1
    66    18    61   1
    67    19    62   1
    68    19    63   1
    69    19    64   1
    70    20    65   1
    71    20    66   1
    72    20    67   1
    73    21    68   1
    74    24    69   1
    75    25    70   1
    76    25    71   1
    77    26    72   1
    78    29    73   1
    79    30    74   1
    80    31    75   1
    81    32    76   1
    82    34    77   1
    83    34    78   1
    84    35    79   1
    85    38    80   1
    86    41    81   1
    87    41    82   1
    88    42    83   1
    89    42    84   1
    90    43    85   1
    91    43    86   1
    92    44    87   1
    93    44    88   1
    94    45    89   1
    95    45    90   1
    96    47    91   1
    97    47    92   1
    98    48    93   1
    99    48    94   1
   100    48    95   1
   101    49    96   1
   102    49    97   1
   103    49    98   1
   104    50    99   1
   105    50   100   1
   106    50   101   1
   107    51   102   1
   108    51   103   1
   109    51   104   1
   110    52   105   1
   111    52   106   1
@<TRIPOS>SUBSTRUCTURE
     1  SU3      1

