@<TRIPOS>MOLECULE
3su3_ligand_006
   106   111
SMALL
GAST_HUCK
****
This file was generated by PARSER (from files_GN.cpp)

@<TRIPOS>ATOM
      1 C         -13.0584   -8.8575   14.2186 C.2         1 SU3       0.2013
      2 N         -15.1128  -10.0779   14.3819 N.am        1 SU3      -0.2469
      3 O         -12.9948   -8.9486   12.9989 O.2         1 SU3      -0.3947
      4 CA        -13.8001   -9.8879   14.9554 C.3         1 SU3       0.1363
      5 CB        -13.0968  -11.2706   14.9179 C.3         1 SU3       0.0206
      6 CG        -14.2126  -12.2572   14.5331 C.3         1 SU3       0.1158
      7 CAF       -16.0813   -9.1347   14.3925 C.2         1 SU3       0.2070
      8 OAG       -15.9426   -8.1934   15.1643 O.2         1 SU3      -0.3942
      9 CAH       -17.2913   -9.1232   13.5604 C.3         1 SU3       0.1378
     10 NAI       -18.4391   -9.1849   14.4268 N.am        1 SU3      -0.2407
     11 CAJ       -19.4613  -10.0704   14.3445 C.2         1 SU3       0.3218
     12 OAK       -20.5385   -9.8186   15.1321 O.3         1 SU3      -0.2633
     13 CAL       -17.4141   -7.9076   12.5419 C.3         1 SU3       0.0025
     14 OAM       -19.4721  -11.0895   13.4560 O.2         1 SU3      -0.3774
     15 CAO       -14.3655  -13.8100   16.5096 C.2         1 SU3       0.4317
     16 OAP       -13.1794  -14.4005   16.2360 O.2         1 SU3      -0.3166
     17 NAQ       -15.1105  -14.2016   17.5739 N.am        1 SU3      -0.2080
     18 CAR       -12.8928   -4.3432   13.1118 C.3         1 SU3      -0.0516
     19 CAS       -13.9882   -3.2680   13.2895 C.3         1 SU3      -0.0651
     20 CAT       -16.1818   -7.8825   11.5783 C.3         1 SU3      -0.0558
     21 NAV       -12.5600   -7.8188   14.8590 N.am        1 SU3      -0.2737
     22 CAX       -12.0117   -6.6388   14.2421 C.3         1 SU3       0.1374
     23 CAY       -10.9475   -6.7844   13.2623 C.2         1 SU3       0.2444
     24 CAZ       -12.9506   -5.4043   14.2467 C.3         1 SU3      -0.0066
     25 CBA       -11.7947   -5.4884   15.2483 C.3         1 SU3      -0.0152
     26 CBB       -14.8026  -15.1867   18.4458 C.2         1 SU3       0.0383
     27 CBC       -15.8216  -15.2875   19.3841 C.ar        1 SU3      -0.0374
     28 CBD       -16.7731  -14.3161   19.0739 C.ar        1 SU3      -0.0293
     29 CBE       -16.2994  -13.6682   17.9365 C.2         1 SU3       0.0366
     30 CBF       -15.9963  -16.1610   20.4724 C.ar        1 SU3      -0.0689
     31 CBG       -17.1562  -16.0274   21.2551 C.ar        1 SU3      -0.0688
     32 CBH       -18.1191  -15.0450   20.9495 C.ar        1 SU3      -0.0606
     33 CBI       -17.9459  -14.1663   19.8487 C.ar        1 SU3      -0.0432
     34 CBJ       -19.0027  -13.1757   19.5058 C.3         1 SU3      -0.0194
     35 NBK        -9.7091   -7.0212   13.6693 N.am        1 SU3      -0.1552
     36 OBL       -11.2403   -6.7490   12.0778 O.2         1 SU3      -0.3404
     37 SBM        -8.3899   -7.2351   12.6360 S.o2        1 SU3       0.0645
     38 CBN        -8.0922   -5.7994   11.5675 C.3         1 SU3       0.1004
     39 OBO        -7.1374   -7.5266   13.5556 O.2         1 SU3      -0.1503
     40 OBP        -8.6111   -8.5445   11.7645 O.2         1 SU3      -0.1503
     41 CBQ        -7.5720   -4.5356   12.2519 C.3         1 SU3      -0.0268
     42 CBR        -6.6599   -5.3301   11.3232 C.3         1 SU3      -0.0268
     43 CBS       -20.1833  -13.8565   18.7635 C.3         1 SU3      -0.0433
     44 CBT       -21.3254  -12.8800   18.3678 C.3         1 SU3      -0.0507
     45 CBU       -21.0664  -12.0950   17.0466 C.3         1 SU3      -0.0453
     46 CBV       -22.1280  -11.0085   16.6416 C.3         1 SU3      -0.0072
     47 CBW       -21.7982  -10.4942   15.1975 C.3         1 SU3       0.0824
     48 CBX       -23.5746  -11.6048   16.6039 C.3         1 SU3      -0.0574
     49 CBY       -22.0995   -9.8006   17.6379 C.3         1 SU3      -0.0574
     50 CBZ       -18.7011   -8.0938   11.6640 C.3         1 SU3      -0.0558
     51 CCA       -17.5299   -6.5115   13.2449 C.3         1 SU3      -0.0558
     52 CD1       -15.2391  -11.3785   13.7949 C.3         1 SU3       0.0677
     53 OD2       -14.8353  -12.8262   15.6907 O.3         1 SU3      -0.2338
     54 H1        -13.9180   -9.6015   16.0037 H           1 SU3       0.0803
     55 H2        -12.6643  -11.5179   15.8932 H           1 SU3       0.0342
     56 H3        -12.2953  -11.3227   14.1735 H           1 SU3       0.0342
     57 H4        -13.8498  -13.0534   13.8753 H           1 SU3       0.0673
     58 H5        -17.2766  -10.0159   12.9278 H           1 SU3       0.0805
     59 H6        -18.5424   -8.4695   15.0730 H           1 SU3       0.1899
     60 H7        -11.9202   -3.8491   13.0798 H           1 SU3       0.0265
     61 H8        -13.0517   -4.8438   12.1550 H           1 SU3       0.0265
     62 H9        -13.9316   -2.5373   12.4813 H           1 SU3       0.0230
     63 H10       -13.8526   -2.7482   14.2412 H           1 SU3       0.0230
     64 H11       -14.9771   -3.7284   13.2733 H           1 SU3       0.0230
     65 H12       -16.2747   -7.0810   10.8441 H           1 SU3       0.0237
     66 H13       -16.0959   -8.8281   11.0375 H           1 SU3       0.0237
     67 H14       -15.2587   -7.7210   12.1317 H           1 SU3       0.0237
     68 H15       -12.6516   -7.8038   15.8245 H           1 SU3       0.1839
     69 H16       -13.9291   -5.5907   14.6948 H           1 SU3       0.0312
     70 H17       -10.9721   -4.7893   15.0686 H           1 SU3       0.0279
     71 H18       -12.0981   -5.6637   16.2801 H           1 SU3       0.0279
     72 H19       -13.9676  -15.7792   18.4268 H           1 SU3       0.0373
     73 H20       -16.7821  -12.9077   17.4503 H           1 SU3       0.0361
     74 H21       -15.2959  -16.8733   20.6855 H           1 SU3       0.0557
     75 H22       -17.3035  -16.6555   22.0529 H           1 SU3       0.0599
     76 H23       -18.9590  -14.9768   21.5316 H           1 SU3       0.0557
     77 H24       -18.5935  -12.3790   18.8842 H           1 SU3       0.0426
     78 H25       -19.3628  -12.7015   20.4239 H           1 SU3       0.0426
     79 H26        -9.5398   -7.0583   14.6225 H           1 SU3       0.2148
     80 H27        -8.8059   -5.6060   10.7604 H           1 SU3       0.0559
     81 H28        -7.3103   -4.5966   13.3136 H           1 SU3       0.0285
     82 H29        -7.9083   -3.5751   11.8486 H           1 SU3       0.0285
     83 H30        -6.4596   -4.8696   10.3518 H           1 SU3       0.0285
     84 H31        -5.8572   -5.8949   11.8110 H           1 SU3       0.0285
     85 H32       -20.6076  -14.6246   19.4163 H           1 SU3       0.0287
     86 H33       -19.8118  -14.3618   17.8678 H           1 SU3       0.0287
     87 H34       -21.4973  -12.1818   19.1885 H           1 SU3       0.0267
     88 H35       -22.2347  -13.4734   18.2433 H           1 SU3       0.0267
     89 H36       -20.9946  -12.8359   16.2447 H           1 SU3       0.0271
     90 H37       -20.0876  -11.6152   17.1209 H           1 SU3       0.0271
     91 H38       -21.8319  -11.3246   14.4872 H           1 SU3       0.0617
     92 H39       -22.5531   -9.7702   14.8793 H           1 SU3       0.0617
     93 H40       -23.9084  -11.9003   17.6007 H           1 SU3       0.0236
     94 H41       -23.6110  -12.4835   15.9552 H           1 SU3       0.0236
     95 H42       -24.2896  -10.8713   16.2244 H           1 SU3       0.0236
     96 H43       -21.0896   -9.3935   17.7274 H           1 SU3       0.0236
     97 H44       -22.4307  -10.0988   18.6340 H           1 SU3       0.0236
     98 H45       -22.7579   -8.9982   17.2975 H           1 SU3       0.0236
     99 H46       -19.6040   -8.0423   12.2774 H           1 SU3       0.0237
    100 H47       -18.6928   -9.0585   11.1534 H           1 SU3       0.0237
    101 H48       -18.7761   -7.3107   10.9041 H           1 SU3       0.0237
    102 H49       -16.6228   -6.2610   13.7893 H           1 SU3       0.0237
    103 H50       -18.3673   -6.4971   13.9436 H           1 SU3       0.0237
    104 H51       -17.6935   -5.7221   12.5093 H           1 SU3       0.0237
    105 H52       -15.0021  -11.3225   12.7272 H           1 SU3       0.0553
    106 H53       -16.2371  -11.8023   13.9217 H           1 SU3       0.0553
@<TRIPOS>BOND
     1     1     3   2
     2     1     4   1
     3    21     1  am
     4     4     2   1
     5     2     7  am
     6     2    52   1
     7     4     5   1
     8     5     6   1
     9     6    52   1
    10     6    53   1
    11     7     8   2
    12     7     9   1
    13     9    10   1
    14     9    13   1
    15    10    11  am
    16    11    12   1
    17    11    14   2
    18    12    47   1
    19    13    20   1
    20    13    50   1
    21    13    51   1
    22    15    16   2
    23    15    17  am
    24    53    15   1
    25    17    26   1
    26    17    29   1
    27    18    19   1
    28    24    18   1
    29    22    21   1
    30    22    23   1
    31    22    24   1
    32    22    25   1
    33    23    35  am
    34    23    36   2
    35    24    25   1
    36    26    27   2
    37    27    28  ar
    38    27    30  ar
    39    28    29   2
    40    28    33  ar
    41    30    31  ar
    42    31    32  ar
    43    32    33  ar
    44    33    34   1
    45    34    43   1
    46    35    37  am
    47    37    38   1
    48    37    39   2
    49    37    40   2
    50    38    41   1
    51    38    42   1
    52    41    42   1
    53    43    44   1
    54    44    45   1
    55    45    46   1
    56    46    47   1
    57    46    48   1
    58    46    49   1
    59     4    54   1
    60     5    55   1
    61     5    56   1
    62     6    57   1
    63     9    58   1
    64    10    59   1
    65    18    60   1
    66    18    61   1
    67    19    62   1
    68    19    63   1
    69    19    64   1
    70    20    65   1
    71    20    66   1
    72    20    67   1
    73    21    68   1
    74    24    69   1
    75    25    70   1
    76    25    71   1
    77    26    72   1
    78    29    73   1
    79    30    74   1
    80    31    75   1
    81    32    76   1
    82    34    77   1
    83    34    78   1
    84    35    79   1
    85    38    80   1
    86    41    81   1
    87    41    82   1
    88    42    83   1
    89    42    84   1
    90    43    85   1
    91    43    86   1
    92    44    87   1
    93    44    88   1
    94    45    89   1
    95    45    90   1
    96    47    91   1
    97    47    92   1
    98    48    93   1
    99    48    94   1
   100    48    95   1
   101    49    96   1
   102    49    97   1
   103    49    98   1
   104    50    99   1
   105    50   100   1
   106    50   101   1
   107    51   102   1
   108    51   103   1
   109    51   104   1
   110    52   105   1
   111    52   106   1
@<TRIPOS>SUBSTRUCTURE
     1  SU3      1

