@<TRIPOS>MOLECULE
3su3_ligand_048
   106   111
SMALL
GAST_HUCK
****
This file was generated by PARSER (from files_GN.cpp)

@<TRIPOS>ATOM
      1 C         -11.6305   -8.3794   10.8297 C.2         1 SU3       0.2013
      2 N         -12.8490  -10.4268   11.2633 N.am        1 SU3      -0.2469
      3 O         -12.4748   -7.7199   10.2285 O.2         1 SU3      -0.3947
      4 CA        -11.6537   -9.8360   10.7015 C.3         1 SU3       0.1363
      5 CB        -11.6201  -10.3150    9.2269 C.3         1 SU3       0.0206
      6 CG        -12.5432  -11.5456    9.2101 C.3         1 SU3       0.1158
      7 CAF       -13.1766  -10.3206   12.5629 C.2         1 SU3       0.2070
      8 OAG       -12.3180   -9.8998   13.3349 O.2         1 SU3      -0.3942
      9 CAH       -14.4766  -10.6574   13.1605 C.3         1 SU3       0.1378
     10 NAI       -14.2420  -11.6777   14.1460 N.am        1 SU3      -0.2407
     11 CAJ       -14.8618  -12.8764   14.2234 C.2         1 SU3       0.3218
     12 OAK       -14.6256  -13.6007   15.3440 O.3         1 SU3      -0.2633
     13 CAL       -15.2792   -9.4303   13.7728 C.3         1 SU3       0.0025
     14 OAM       -15.7514  -13.2882   13.2889 O.2         1 SU3      -0.3774
     15 CAO       -10.9784  -13.4965    8.8503 C.2         1 SU3       0.4317
     16 OAP       -10.6949  -13.1293    7.5752 O.2         1 SU3      -0.3166
     17 NAQ       -10.4009  -14.5954    9.4009 N.am        1 SU3      -0.2080
     18 CAR        -8.2069   -4.8167   11.9375 C.3         1 SU3      -0.0516
     19 CAS        -7.5882   -5.1661   13.3116 C.3         1 SU3      -0.0651
     20 CAT       -16.6458   -9.9358   14.3550 C.3         1 SU3      -0.0558
     21 NAV       -10.7265   -7.7761   11.6017 N.am        1 SU3      -0.2737
     22 CAX       -10.5245   -6.3654   11.7439 C.3         1 SU3       0.1374
     23 CAY       -11.2451   -5.6397   12.7961 C.2         1 SU3       0.2444
     24 CAZ        -9.0570   -5.9915   11.3692 C.3         1 SU3      -0.0066
     25 CBA       -10.2173   -5.5959   10.4433 C.3         1 SU3      -0.0152
     26 CBB        -9.5275  -15.4261    8.7901 C.2         1 SU3       0.0383
     27 CBC        -9.1606  -16.4289    9.6800 C.ar        1 SU3      -0.0374
     28 CBD        -9.8340  -16.1901   10.8769 C.ar        1 SU3      -0.0293
     29 CBE       -10.6003  -15.0449   10.6624 C.2         1 SU3       0.0366
     30 CBF        -8.2968  -17.5281    9.5323 C.ar        1 SU3      -0.0689
     31 CBG        -8.1226  -18.3962   10.6277 C.ar        1 SU3      -0.0688
     32 CBH        -8.8044  -18.1592   11.8415 C.ar        1 SU3      -0.0606
     33 CBI        -9.6709  -17.0456   11.9936 C.ar        1 SU3      -0.0432
     34 CBJ       -10.3897  -16.8249   13.2777 C.3         1 SU3      -0.0194
     35 NBK       -12.4609   -6.0109   13.1733 N.am        1 SU3      -0.1552
     36 OBL       -10.7270   -4.6808   13.3477 O.2         1 SU3      -0.3404
     37 SBM       -13.3673   -5.2602   14.3870 S.o2        1 SU3       0.0645
     38 CBN       -12.9320   -5.5837   16.1120 C.3         1 SU3       0.1004
     39 OBO       -13.4543   -3.6929   14.1334 O.2         1 SU3      -0.1503
     40 OBP       -14.8837   -5.6867   14.1773 O.2         1 SU3      -0.1503
     41 CBQ       -11.8410   -6.6222   16.4132 C.3         1 SU3      -0.0268
     42 CBR       -11.5390   -5.1273   16.5805 C.3         1 SU3      -0.0268
     43 CBS       -11.6500  -17.7255   13.3880 C.3         1 SU3      -0.0433
     44 CBT       -12.4662  -17.5283   14.6959 C.3         1 SU3      -0.0507
     45 CBU       -13.4054  -16.2838   14.6915 C.3         1 SU3      -0.0453
     46 CBV       -14.1913  -15.9697   16.0202 C.3         1 SU3      -0.0072
     47 CBW       -15.2363  -14.8365   15.7410 C.3         1 SU3       0.0824
     48 CBX       -14.9869  -17.2167   16.5265 C.3         1 SU3      -0.0574
     49 CBY       -13.2163  -15.4946   17.1474 C.3         1 SU3      -0.0574
     50 CBZ       -14.5159   -8.6881   14.9175 C.3         1 SU3      -0.0558
     51 CCA       -15.6058   -8.3919   12.6448 C.3         1 SU3      -0.0558
     52 CD1       -13.5732  -11.2060   10.3016 C.3         1 SU3       0.0677
     53 OD2       -11.8510  -12.7526    9.5807 O.3         1 SU3      -0.2338
     54 H1        -10.7918  -10.2816   11.2133 H           1 SU3       0.0803
     55 H2        -10.6054  -10.5630    8.9089 H           1 SU3       0.0342
     56 H3        -12.0243   -9.5636    8.5435 H           1 SU3       0.0342
     57 H4        -13.0341  -11.6763    8.2414 H           1 SU3       0.0673
     58 H5        -15.1255  -11.0611   12.3822 H           1 SU3       0.0805
     59 H6        -13.6382  -11.4567   14.8727 H           1 SU3       0.1899
     60 H7         -7.3954   -4.6251   11.2295 H           1 SU3       0.0265
     61 H8         -8.7823   -3.8933   12.0247 H           1 SU3       0.0265
     62 H9         -7.0458   -4.2993   13.6963 H           1 SU3       0.0230
     63 H10        -6.8890   -6.0021   13.2107 H           1 SU3       0.0230
     64 H11        -8.3620   -5.4333   14.0343 H           1 SU3       0.0230
     65 H12       -17.2476   -9.1006   14.7257 H           1 SU3       0.0237
     66 H13       -16.4857  -10.6214   15.1942 H           1 SU3       0.0237
     67 H14       -17.2269  -10.4611   13.5942 H           1 SU3       0.0237
     68 H15       -10.0947   -8.3500   12.0658 H           1 SU3       0.1839
     69 H16        -8.4562   -6.8164   10.9675 H           1 SU3       0.0312
     70 H17       -10.4824   -4.5347   10.4225 H           1 SU3       0.0279
     71 H18       -10.2885   -6.1659    9.5114 H           1 SU3       0.0279
     72 H19        -9.1883  -15.3476    7.8276 H           1 SU3       0.0373
     73 H20       -11.2188  -14.6175   11.3552 H           1 SU3       0.0361
     74 H21        -7.8083  -17.6958    8.6506 H           1 SU3       0.0557
     75 H22        -7.5027  -19.2047   10.5410 H           1 SU3       0.0599
     76 H23        -8.6650  -18.8106   12.6181 H           1 SU3       0.0557
     77 H24       -10.6787  -15.7776   13.3736 H           1 SU3       0.0426
     78 H25        -9.7129  -17.0372   14.1099 H           1 SU3       0.0426
     79 H26       -12.8615   -6.7714   12.7294 H           1 SU3       0.2148
     80 H27       -13.7075   -5.4567   16.8675 H           1 SU3       0.0559
     81 H28       -11.3535   -7.0951   15.5605 H           1 SU3       0.0285
     82 H29       -11.9723   -7.1830   17.3403 H           1 SU3       0.0285
     83 H30       -11.4539   -4.7949   17.6156 H           1 SU3       0.0285
     84 H31       -10.8630   -4.7085   15.8327 H           1 SU3       0.0285
     85 H32       -11.3263  -18.7700   13.3480 H           1 SU3       0.0287
     86 H33       -12.3011  -17.5528   12.5262 H           1 SU3       0.0287
     87 H34       -11.7762  -17.4795   15.5398 H           1 SU3       0.0267
     88 H35       -13.0841  -18.4196   14.8268 H           1 SU3       0.0267
     89 H36       -14.1289  -16.4316   13.8840 H           1 SU3       0.0271
     90 H37       -12.8124  -15.4059   14.4244 H           1 SU3       0.0271
     91 H38       -15.9586  -15.1714   14.9926 H           1 SU3       0.0617
     92 H39       -15.7990  -14.6146   16.6517 H           1 SU3       0.0617
     93 H40       -14.3131  -18.0146   16.8429 H           1 SU3       0.0236
     94 H41       -15.6335  -17.6063   15.7378 H           1 SU3       0.0236
     95 H42       -15.6127  -16.9591   17.3834 H           1 SU3       0.0236
     96 H43       -12.6079  -14.6543   16.8084 H           1 SU3       0.0236
     97 H44       -12.5459  -16.2988   17.4497 H           1 SU3       0.0236
     98 H45       -13.7700  -15.1744   18.0326 H           1 SU3       0.0236
     99 H46       -13.6266   -8.1856   14.5360 H           1 SU3       0.0237
    100 H47       -14.2074   -9.3871   15.6984 H           1 SU3       0.0237
    101 H48       -15.1424   -7.9225   15.3731 H           1 SU3       0.0237
    102 H49       -16.1599   -8.8640   11.8291 H           1 SU3       0.0237
    103 H50       -14.6890   -7.9664   12.2341 H           1 SU3       0.0237
    104 H51       -16.2124   -7.5691   13.0370 H           1 SU3       0.0237
    105 H52       -14.3922  -10.6052    9.8953 H           1 SU3       0.0553
    106 H53       -13.9740  -12.1369   10.7146 H           1 SU3       0.0553
@<TRIPOS>BOND
     1     1     3   2
     2     1     4   1
     3    21     1  am
     4     4     2   1
     5     2     7  am
     6     2    52   1
     7     4     5   1
     8     5     6   1
     9     6    52   1
    10     6    53   1
    11     7     8   2
    12     7     9   1
    13     9    10   1
    14     9    13   1
    15    10    11  am
    16    11    12   1
    17    11    14   2
    18    12    47   1
    19    13    20   1
    20    13    50   1
    21    13    51   1
    22    15    16   2
    23    15    17  am
    24    53    15   1
    25    17    26   1
    26    17    29   1
    27    18    19   1
    28    24    18   1
    29    22    21   1
    30    22    23   1
    31    22    24   1
    32    22    25   1
    33    23    35  am
    34    23    36   2
    35    24    25   1
    36    26    27   2
    37    27    28  ar
    38    27    30  ar
    39    28    29   2
    40    28    33  ar
    41    30    31  ar
    42    31    32  ar
    43    32    33  ar
    44    33    34   1
    45    34    43   1
    46    35    37  am
    47    37    38   1
    48    37    39   2
    49    37    40   2
    50    38    41   1
    51    38    42   1
    52    41    42   1
    53    43    44   1
    54    44    45   1
    55    45    46   1
    56    46    47   1
    57    46    48   1
    58    46    49   1
    59     4    54   1
    60     5    55   1
    61     5    56   1
    62     6    57   1
    63     9    58   1
    64    10    59   1
    65    18    60   1
    66    18    61   1
    67    19    62   1
    68    19    63   1
    69    19    64   1
    70    20    65   1
    71    20    66   1
    72    20    67   1
    73    21    68   1
    74    24    69   1
    75    25    70   1
    76    25    71   1
    77    26    72   1
    78    29    73   1
    79    30    74   1
    80    31    75   1
    81    32    76   1
    82    34    77   1
    83    34    78   1
    84    35    79   1
    85    38    80   1
    86    41    81   1
    87    41    82   1
    88    42    83   1
    89    42    84   1
    90    43    85   1
    91    43    86   1
    92    44    87   1
    93    44    88   1
    94    45    89   1
    95    45    90   1
    96    47    91   1
    97    47    92   1
    98    48    93   1
    99    48    94   1
   100    48    95   1
   101    49    96   1
   102    49    97   1
   103    49    98   1
   104    50    99   1
   105    50   100   1
   106    50   101   1
   107    51   102   1
   108    51   103   1
   109    51   104   1
   110    52   105   1
   111    52   106   1
@<TRIPOS>SUBSTRUCTURE
     1  SU3      1

