@<TRIPOS>MOLECULE
3su3_ligand_012
   106   111
SMALL
GAST_HUCK
****
This file was generated by PARSER (from files_GN.cpp)

@<TRIPOS>ATOM
      1 C         -11.2255   -7.3235   11.7585 C.2         1 SU3       0.2013
      2 N         -11.7521   -9.5341   10.9152 N.am        1 SU3      -0.2469
      3 O         -12.0368   -6.5365   11.2819 O.2         1 SU3      -0.3947
      4 CA        -10.7915   -8.4534   10.9325 C.3         1 SU3       0.1363
      5 CB        -10.5813   -8.0571    9.4460 C.3         1 SU3       0.0206
      6 CG        -11.0228   -9.3081    8.6702 C.3         1 SU3       0.1158
      7 CAF       -12.1802  -10.1615   12.0305 C.2         1 SU3       0.2070
      8 OAG       -11.6156   -9.8992   13.0879 O.2         1 SU3      -0.3942
      9 CAH       -13.2625  -11.1483   12.1335 C.3         1 SU3       0.1378
     10 NAI       -12.6722  -12.3719   12.6191 N.am        1 SU3      -0.2407
     11 CAJ       -12.6879  -13.5826   12.0196 C.2         1 SU3       0.3218
     12 OAK       -12.1586  -14.6215   12.7182 O.3         1 SU3      -0.2633
     13 CAL       -14.4961  -10.6899   13.0251 C.3         1 SU3       0.0025
     14 OAM       -13.2870  -13.7835   10.8200 O.2         1 SU3      -0.3774
     15 CAO        -8.8283  -10.1218    7.7520 C.2         1 SU3       0.4317
     16 OAP        -8.7163   -9.0861    6.8877 O.2         1 SU3      -0.3166
     17 NAQ        -7.8326  -11.0338    7.8714 N.am        1 SU3      -0.2080
     18 CAR       -12.1669   -6.2827   16.6537 C.3         1 SU3      -0.0516
     19 CAS       -13.6622   -6.6653   16.6562 C.3         1 SU3      -0.0651
     20 CAT       -14.1100  -10.3341   14.5048 C.3         1 SU3      -0.0558
     21 NAV       -10.8542   -7.2615   13.0349 N.am        1 SU3      -0.2737
     22 CAX       -11.2170   -6.3037   14.0486 C.3         1 SU3       0.1374
     23 CAY       -12.0653   -5.1703   13.7354 C.2         1 SU3       0.2444
     24 CAZ       -11.3904   -6.9175   15.4671 C.3         1 SU3      -0.0066
     25 CBA       -10.1150   -6.1390   15.1145 C.3         1 SU3      -0.0152
     26 CBB        -6.6647  -11.0526    7.1903 C.2         1 SU3       0.0383
     27 CBC        -5.9038  -12.1281    7.6361 C.ar        1 SU3      -0.0374
     28 CBD        -6.6443  -12.7812    8.6199 C.ar        1 SU3      -0.0293
     29 CBE        -7.8399  -12.0760    8.7323 C.2         1 SU3       0.0366
     30 CBF        -4.6320  -12.5904    7.2573 C.ar        1 SU3      -0.0689
     31 CBG        -4.1169  -13.7362    7.8954 C.ar        1 SU3      -0.0688
     32 CBH        -4.8648  -14.3948    8.8986 C.ar        1 SU3      -0.0606
     33 CBI        -6.1435  -13.9239    9.2898 C.ar        1 SU3      -0.0432
     34 CBJ        -6.9104  -14.6080   10.3653 C.3         1 SU3      -0.0194
     35 NBK       -13.3142   -5.3982   13.3719 N.am        1 SU3      -0.1552
     36 OBL       -11.5435   -4.0642   13.6619 O.2         1 SU3      -0.3404
     37 SBM       -14.3312   -4.2759   12.6331 S.o2        1 SU3       0.0645
     38 CBN       -15.0986   -3.0395   13.6934 C.3         1 SU3       0.1004
     39 OBO       -13.6183   -3.6105   11.3756 O.2         1 SU3      -0.1503
     40 OBP       -15.5013   -5.1318   11.9750 O.2         1 SU3      -0.1503
     41 CBQ       -15.7786   -3.5680   14.9686 C.3         1 SU3      -0.0268
     42 CBR       -14.4846   -2.7457   15.0670 C.3         1 SU3      -0.0268
     43 CBS        -7.6096  -15.8995    9.8656 C.3         1 SU3      -0.0433
     44 CBT        -8.4452  -16.6246   10.9585 C.3         1 SU3      -0.0507
     45 CBU        -9.8449  -15.9938   11.2495 C.3         1 SU3      -0.0453
     46 CBV       -10.7153  -16.6577   12.3843 C.3         1 SU3      -0.0072
     47 CBW       -12.1490  -16.0184   12.3771 C.3         1 SU3       0.0824
     48 CBX       -10.8819  -18.1950   12.1414 C.3         1 SU3      -0.0574
     49 CBY       -10.0666  -16.4374   13.7908 C.3         1 SU3      -0.0574
     50 CBZ       -15.1917   -9.4440   12.3801 C.3         1 SU3      -0.0558
     51 CCA       -15.5464  -11.8507   13.0751 C.3         1 SU3      -0.0558
     52 CD1       -12.1129   -9.9115    9.5794 C.3         1 SU3       0.0677
     53 OD2        -9.9310  -10.2288    8.5426 O.3         1 SU3      -0.2338
     54 H1         -9.8442   -8.8623   11.3107 H           1 SU3       0.0803
     55 H2         -9.5381   -7.7944    9.2458 H           1 SU3       0.0342
     56 H3        -11.2127   -7.2176    9.1344 H           1 SU3       0.0342
     57 H4        -11.4275   -9.0682    7.6821 H           1 SU3       0.0673
     58 H5        -13.6697  -11.3268   11.1351 H           1 SU3       0.0805
     59 H6        -12.2361  -12.3290   13.4861 H           1 SU3       0.1899
     60 H7        -11.7147   -6.6417   17.5859 H           1 SU3       0.0265
     61 H8        -12.0852   -5.1907   16.6329 H           1 SU3       0.0265
     62 H9        -14.1521   -6.2091   17.5195 H           1 SU3       0.0230
     63 H10       -13.7803   -7.7501   16.7171 H           1 SU3       0.0230
     64 H11       -14.1496   -6.3063   15.7485 H           1 SU3       0.0230
     65 H12       -15.0049  -10.1614   15.1083 H           1 SU3       0.0237
     66 H13       -13.5125   -9.4233   14.5600 H           1 SU3       0.0237
     67 H14       -13.5453  -11.1421   14.9711 H           1 SU3       0.0237
     68 H15       -10.3245   -8.0130   13.3581 H           1 SU3       0.1839
     69 H16       -11.2063   -7.9927   15.5367 H           1 SU3       0.0312
     70 H17       -10.0032   -5.1393   15.5319 H           1 SU3       0.0279
     71 H18        -9.2174   -6.7493   15.0009 H           1 SU3       0.0279
     72 H19        -6.3721  -10.3839    6.4743 H           1 SU3       0.0373
     73 H20        -8.5999  -12.3110    9.3767 H           1 SU3       0.0361
     74 H21        -4.0926  -12.1077    6.5367 H           1 SU3       0.0557
     75 H22        -3.1942  -14.0903    7.6356 H           1 SU3       0.0599
     76 H23        -4.4595  -15.2166    9.3546 H           1 SU3       0.0557
     77 H24        -7.6663  -13.9392   10.7713 H           1 SU3       0.0426
     78 H25        -6.2305  -14.8477   11.1859 H           1 SU3       0.0426
     79 H26       -13.6269   -6.3176   13.4278 H           1 SU3       0.2148
     80 H27       -15.6116   -2.2089   13.2090 H           1 SU3       0.0559
     81 H28       -15.6622   -4.6325   15.2092 H           1 SU3       0.0285
     82 H29       -16.6732   -3.0344   15.3073 H           1 SU3       0.0285
     83 H30       -14.6168   -1.7259   15.4351 H           1 SU3       0.0285
     84 H31       -13.5954   -3.3113   15.3567 H           1 SU3       0.0285
     85 H32        -6.8384  -16.5915    9.5126 H           1 SU3       0.0287
     86 H33        -8.2552  -15.6621    9.0142 H           1 SU3       0.0287
     87 H34        -7.8584  -16.6686   11.8777 H           1 SU3       0.0267
     88 H35        -8.5966  -17.6505   10.6137 H           1 SU3       0.0267
     89 H36       -10.4102  -16.0237   10.3122 H           1 SU3       0.0271
     90 H37        -9.7035  -14.9388   11.4986 H           1 SU3       0.0271
     91 H38       -12.6245  -16.1866   11.4049 H           1 SU3       0.0617
     92 H39       -12.7729  -16.5124   13.1256 H           1 SU3       0.0617
     93 H40        -9.9317  -18.7193   12.2515 H           1 SU3       0.0236
     94 H41       -11.2656  -18.3869   11.1373 H           1 SU3       0.0236
     95 H42       -11.5778  -18.6320   12.8602 H           1 SU3       0.0236
     96 H43        -9.8996  -15.3758   13.9821 H           1 SU3       0.0236
     97 H44        -9.1062  -16.9486   13.8689 H           1 SU3       0.0236
     98 H45       -10.7131  -16.8254   14.5805 H           1 SU3       0.0236
     99 H46       -15.5102   -9.6677   11.3591 H           1 SU3       0.0237
    100 H47       -14.5126   -8.5897   12.3444 H           1 SU3       0.0237
    101 H48       -16.0710   -9.1480   12.9544 H           1 SU3       0.0237
    102 H49       -15.1330  -12.7302   13.5730 H           1 SU3       0.0237
    103 H50       -15.8521  -12.1408   12.0676 H           1 SU3       0.0237
    104 H51       -16.4415  -11.5463   13.6221 H           1 SU3       0.0237
    105 H52       -13.0964   -9.4977    9.3366 H           1 SU3       0.0553
    106 H53       -12.1342  -10.9971    9.4466 H           1 SU3       0.0553
@<TRIPOS>BOND
     1     1     3   2
     2     1     4   1
     3    21     1  am
     4     4     2   1
     5     2     7  am
     6     2    52   1
     7     4     5   1
     8     5     6   1
     9     6    52   1
    10     6    53   1
    11     7     8   2
    12     7     9   1
    13     9    10   1
    14     9    13   1
    15    10    11  am
    16    11    12   1
    17    11    14   2
    18    12    47   1
    19    13    20   1
    20    13    50   1
    21    13    51   1
    22    15    16   2
    23    15    17  am
    24    53    15   1
    25    17    26   1
    26    17    29   1
    27    18    19   1
    28    24    18   1
    29    22    21   1
    30    22    23   1
    31    22    24   1
    32    22    25   1
    33    23    35  am
    34    23    36   2
    35    24    25   1
    36    26    27   2
    37    27    28  ar
    38    27    30  ar
    39    28    29   2
    40    28    33  ar
    41    30    31  ar
    42    31    32  ar
    43    32    33  ar
    44    33    34   1
    45    34    43   1
    46    35    37  am
    47    37    38   1
    48    37    39   2
    49    37    40   2
    50    38    41   1
    51    38    42   1
    52    41    42   1
    53    43    44   1
    54    44    45   1
    55    45    46   1
    56    46    47   1
    57    46    48   1
    58    46    49   1
    59     4    54   1
    60     5    55   1
    61     5    56   1
    62     6    57   1
    63     9    58   1
    64    10    59   1
    65    18    60   1
    66    18    61   1
    67    19    62   1
    68    19    63   1
    69    19    64   1
    70    20    65   1
    71    20    66   1
    72    20    67   1
    73    21    68   1
    74    24    69   1
    75    25    70   1
    76    25    71   1
    77    26    72   1
    78    29    73   1
    79    30    74   1
    80    31    75   1
    81    32    76   1
    82    34    77   1
    83    34    78   1
    84    35    79   1
    85    38    80   1
    86    41    81   1
    87    41    82   1
    88    42    83   1
    89    42    84   1
    90    43    85   1
    91    43    86   1
    92    44    87   1
    93    44    88   1
    94    45    89   1
    95    45    90   1
    96    47    91   1
    97    47    92   1
    98    48    93   1
    99    48    94   1
   100    48    95   1
   101    49    96   1
   102    49    97   1
   103    49    98   1
   104    50    99   1
   105    50   100   1
   106    50   101   1
   107    51   102   1
   108    51   103   1
   109    51   104   1
   110    52   105   1
   111    52   106   1
@<TRIPOS>SUBSTRUCTURE
     1  SU3      1

