@<TRIPOS>MOLECULE
3su3_ligand_090
   106   111
SMALL
GAST_HUCK
****
This file was generated by PARSER (from files_GN.cpp)

@<TRIPOS>ATOM
      1 C         -11.3173   -8.9926   10.7401 C.2         1 SU3       0.2013
      2 N         -12.7291  -10.9463   11.2656 N.am        1 SU3      -0.2469
      3 O         -12.2674   -8.2652   11.0007 O.2         1 SU3      -0.3947
      4 CA        -11.5193  -10.4377   10.6487 C.3         1 SU3       0.1363
      5 CB        -11.6134  -10.8681    9.1611 C.3         1 SU3       0.0206
      6 CG        -12.5615  -12.0748    9.1902 C.3         1 SU3       0.1158
      7 CAF       -13.0387  -10.7704   12.5656 C.2         1 SU3       0.2070
      8 OAG       -12.1744  -10.3106   13.3014 O.2         1 SU3      -0.3942
      9 CAH       -14.3238  -11.0891   13.2080 C.3         1 SU3       0.1378
     10 NAI       -14.0761  -12.1269   14.1697 N.am        1 SU3      -0.2407
     11 CAJ       -14.7036  -13.3220   14.2460 C.2         1 SU3       0.3218
     12 OAK       -14.4371  -14.0885   15.3367 O.3         1 SU3      -0.2633
     13 CAL       -15.0990   -9.8672   13.8616 C.3         1 SU3       0.0025
     14 OAM       -15.6370  -13.7036   13.3397 O.2         1 SU3      -0.3774
     15 CAO       -11.0252  -14.0205    8.7437 C.2         1 SU3       0.4317
     16 OAP       -10.7886  -13.6361    7.4673 O.2         1 SU3      -0.3166
     17 NAQ       -10.4359  -15.1299    9.2566 N.am        1 SU3      -0.2080
     18 CAR        -9.8070   -4.7587   11.8179 C.3         1 SU3      -0.0516
     19 CAS        -8.5366   -3.9079   12.0313 C.3         1 SU3      -0.0651
     20 CAT       -14.2984   -9.1578   15.0107 C.3         1 SU3      -0.0558
     21 NAV       -10.1342   -8.4652   10.4554 N.am        1 SU3      -0.2737
     22 CAX        -9.8783   -7.0615   10.3281 C.3         1 SU3       0.1374
     23 CAY       -10.5096   -6.3936    9.2030 C.2         1 SU3       0.2444
     24 CAZ        -9.5307   -6.2723   11.6188 C.3         1 SU3      -0.0066
     25 CBA        -8.4192   -6.6716   10.6359 C.3         1 SU3      -0.0152
     26 CBB        -9.5922  -15.9612    8.6019 C.2         1 SU3       0.0383
     27 CBC        -9.1988  -16.9718    9.4695 C.ar        1 SU3      -0.0374
     28 CBD        -9.8220  -16.7405   10.6947 C.ar        1 SU3      -0.0293
     29 CBE       -10.5898  -15.5887   10.5190 C.2         1 SU3       0.0366
     30 CBF        -8.3476  -18.0754    9.2810 C.ar        1 SU3      -0.0689
     31 CBG        -8.1369  -18.9509   10.3628 C.ar        1 SU3      -0.0688
     32 CBH        -8.7676  -18.7191   11.6043 C.ar        1 SU3      -0.0606
     33 CBI        -9.6215  -17.6020   11.7979 C.ar        1 SU3      -0.0432
     34 CBJ       -10.2890  -17.3842   13.1104 C.3         1 SU3      -0.0194
     35 NBK       -11.6996   -5.8568    9.3899 N.am        1 SU3      -0.1552
     36 OBL        -9.9718   -6.4391    8.1016 O.2         1 SU3      -0.3404
     37 SBM       -12.6557   -5.0958    8.2274 S.o2        1 SU3       0.0645
     38 CBN       -13.5380   -3.7485    9.0496 C.3         1 SU3       0.1004
     39 OBO       -11.7525   -4.4604    7.0842 O.2         1 SU3      -0.1503
     40 OBP       -13.6530   -6.1592    7.5948 O.2         1 SU3      -0.1503
     41 CBQ       -13.9014   -2.5163    8.2033 C.3         1 SU3      -0.0268
     42 CBR       -15.0025   -3.4719    8.6726 C.3         1 SU3      -0.0268
     43 CBS       -11.5616  -18.2616   13.2568 C.3         1 SU3      -0.0433
     44 CBT       -12.3321  -18.0530   14.5910 C.3         1 SU3      -0.0507
     45 CBU       -13.2592  -16.7988   14.6161 C.3         1 SU3      -0.0453
     46 CBV       -13.9995  -16.4757   15.9689 C.3         1 SU3      -0.0072
     47 CBW       -15.0430  -15.3320   15.7237 C.3         1 SU3       0.0824
     48 CBX       -14.7786  -17.7226   16.5056 C.3         1 SU3      -0.0574
     49 CBY       -12.9858  -16.0069   17.0629 C.3         1 SU3      -0.0574
     50 CBZ       -15.4515   -8.8001   12.7738 C.3         1 SU3      -0.0558
     51 CCA       -16.4474  -10.3746   14.4779 C.3         1 SU3      -0.0558
     52 CD1       -13.5165  -11.7144   10.3419 C.3         1 SU3       0.0677
     53 OD2       -11.8676  -13.2867    9.5194 O.3         1 SU3      -0.2338
     54 H1        -10.6671  -10.9476   11.1137 H           1 SU3       0.0803
     55 H2        -10.6336  -11.1192    8.7462 H           1 SU3       0.0342
     56 H3        -12.0639  -10.0882    8.5362 H           1 SU3       0.0342
     57 H4        -13.1097  -12.1979    8.2501 H           1 SU3       0.0673
     58 H5        -15.0032  -11.4693   12.4432 H           1 SU3       0.0805
     59 H6        -13.4410  -11.9256   14.8753 H           1 SU3       0.1899
     60 H7        -10.3548   -4.3411   10.9720 H           1 SU3       0.0265
     61 H8        -10.4360   -4.6501   12.7039 H           1 SU3       0.0265
     62 H9         -8.8177   -2.8729   12.2486 H           1 SU3       0.0230
     63 H10        -7.9171   -3.9176   11.1333 H           1 SU3       0.0230
     64 H11        -7.9493   -4.2869   12.8726 H           1 SU3       0.0230
     65 H12       -14.9171   -8.4065   15.5079 H           1 SU3       0.0237
     66 H13       -13.4159   -8.6440   14.6272 H           1 SU3       0.0237
     67 H14       -13.9755   -9.8764   15.7669 H           1 SU3       0.0237
     68 H15        -9.4088   -9.0752   10.2335 H           1 SU3       0.1839
     69 H16        -9.5147   -6.8683   12.5307 H           1 SU3       0.0312
     70 H17        -7.9885   -5.8815   10.0103 H           1 SU3       0.0279
     71 H18        -7.7615   -7.4548   11.0211 H           1 SU3       0.0279
     72 H19        -9.2880  -15.8733    7.6295 H           1 SU3       0.0373
     73 H20       -11.1750  -15.1617   11.2416 H           1 SU3       0.0361
     74 H21        -7.8967  -18.2391    8.3784 H           1 SU3       0.0557
     75 H22        -7.5228  -19.7605   10.2476 H           1 SU3       0.0599
     76 H23        -8.5972  -19.3719   12.3710 H           1 SU3       0.0557
     77 H24       -10.5533  -16.3326   13.2306 H           1 SU3       0.0426
     78 H25        -9.5876  -17.6221   13.9152 H           1 SU3       0.0426
     79 H26       -12.0707   -5.9086   10.2840 H           1 SU3       0.2148
     80 H27       -13.2775   -3.5179   10.0851 H           1 SU3       0.0559
     81 H28       -13.6851   -2.5553    7.1336 H           1 SU3       0.0285
     82 H29       -13.8577   -1.5548    8.7203 H           1 SU3       0.0285
     83 H30       -15.6420   -3.0834    9.4685 H           1 SU3       0.0285
     84 H31       -15.4436   -4.0873    7.8869 H           1 SU3       0.0285
     85 H32       -11.2576  -19.3117   13.2038 H           1 SU3       0.0287
     86 H33       -12.2373  -18.0744   12.4172 H           1 SU3       0.0287
     87 H34       -11.6137  -18.0103   15.4118 H           1 SU3       0.0267
     88 H35       -12.9533  -18.9390   14.7442 H           1 SU3       0.0267
     89 H36       -14.0096  -16.9411   13.8324 H           1 SU3       0.0271
     90 H37       -12.6671  -15.9264   14.3288 H           1 SU3       0.0271
     91 H38       -15.7799  -15.6544   14.9824 H           1 SU3       0.0617
     92 H39       -15.5907  -15.1280   16.6470 H           1 SU3       0.0617
     93 H40       -14.0948  -18.5206   16.7996 H           1 SU3       0.0236
     94 H41       -15.4539  -18.1135   15.7411 H           1 SU3       0.0236
     95 H42       -15.3731  -17.4635   17.3848 H           1 SU3       0.0236
     96 H43       -12.3889  -15.1659   16.7045 H           1 SU3       0.0236
     97 H44       -12.3046  -16.8123   17.3405 H           1 SU3       0.0236
     98 H45       -13.5094  -15.6888   17.9673 H           1 SU3       0.0236
     99 H46       -15.9894   -9.2587   11.9418 H           1 SU3       0.0237
    100 H47       -14.5503   -8.3339   12.3792 H           1 SU3       0.0237
    101 H48       -16.0786   -8.0066   13.1865 H           1 SU3       0.0237
    102 H49       -16.2662  -11.0617   15.3072 H           1 SU3       0.0237
    103 H50       -17.0453  -10.8968   13.7279 H           1 SU3       0.0237
    104 H51       -17.0453   -9.5444   14.8630 H           1 SU3       0.0237
    105 H52       -14.3560  -11.1121    9.9788 H           1 SU3       0.0553
    106 H53       -13.9009  -12.6364   10.7878 H           1 SU3       0.0553
@<TRIPOS>BOND
     1     1     3   2
     2     1     4   1
     3    21     1  am
     4     4     2   1
     5     2     7  am
     6     2    52   1
     7     4     5   1
     8     5     6   1
     9     6    52   1
    10     6    53   1
    11     7     8   2
    12     7     9   1
    13     9    10   1
    14     9    13   1
    15    10    11  am
    16    11    12   1
    17    11    14   2
    18    12    47   1
    19    13    20   1
    20    13    50   1
    21    13    51   1
    22    15    16   2
    23    15    17  am
    24    53    15   1
    25    17    26   1
    26    17    29   1
    27    18    19   1
    28    24    18   1
    29    22    21   1
    30    22    23   1
    31    22    24   1
    32    22    25   1
    33    23    35  am
    34    23    36   2
    35    24    25   1
    36    26    27   2
    37    27    28  ar
    38    27    30  ar
    39    28    29   2
    40    28    33  ar
    41    30    31  ar
    42    31    32  ar
    43    32    33  ar
    44    33    34   1
    45    34    43   1
    46    35    37  am
    47    37    38   1
    48    37    39   2
    49    37    40   2
    50    38    41   1
    51    38    42   1
    52    41    42   1
    53    43    44   1
    54    44    45   1
    55    45    46   1
    56    46    47   1
    57    46    48   1
    58    46    49   1
    59     4    54   1
    60     5    55   1
    61     5    56   1
    62     6    57   1
    63     9    58   1
    64    10    59   1
    65    18    60   1
    66    18    61   1
    67    19    62   1
    68    19    63   1
    69    19    64   1
    70    20    65   1
    71    20    66   1
    72    20    67   1
    73    21    68   1
    74    24    69   1
    75    25    70   1
    76    25    71   1
    77    26    72   1
    78    29    73   1
    79    30    74   1
    80    31    75   1
    81    32    76   1
    82    34    77   1
    83    34    78   1
    84    35    79   1
    85    38    80   1
    86    41    81   1
    87    41    82   1
    88    42    83   1
    89    42    84   1
    90    43    85   1
    91    43    86   1
    92    44    87   1
    93    44    88   1
    94    45    89   1
    95    45    90   1
    96    47    91   1
    97    47    92   1
    98    48    93   1
    99    48    94   1
   100    48    95   1
   101    49    96   1
   102    49    97   1
   103    49    98   1
   104    50    99   1
   105    50   100   1
   106    50   101   1
   107    51   102   1
   108    51   103   1
   109    51   104   1
   110    52   105   1
   111    52   106   1
@<TRIPOS>SUBSTRUCTURE
     1  SU3      1

