@<TRIPOS>MOLECULE
3su3_ligand_021
   106   111
SMALL
GAST_HUCK
****
This file was generated by PARSER (from files_GN.cpp)

@<TRIPOS>ATOM
      1 C          -8.9345   -5.4853    8.0619 C.2         1 SU3       0.2013
      2 N         -10.1739   -7.2793    9.2288 N.am        1 SU3      -0.2469
      3 O          -9.2404   -4.4151    7.5455 O.2         1 SU3      -0.3947
      4 CA         -9.6581   -5.9240    9.2590 C.3         1 SU3       0.1363
      5 CB         -8.7663   -5.8589   10.5246 C.3         1 SU3       0.0206
      6 CG         -9.3808   -6.9254   11.4375 C.3         1 SU3       0.1158
      7 CAF       -10.9685   -7.7656    8.2575 C.2         1 SU3       0.2070
      8 OAG       -11.3672   -6.9819    7.4030 O.2         1 SU3      -0.3942
      9 CAH       -11.4388   -9.1565    8.1290 C.3         1 SU3       0.1378
     10 NAI       -12.8782   -9.1389    8.1492 N.am        1 SU3      -0.2407
     11 CAJ       -13.6698   -9.8352    8.9968 C.2         1 SU3       0.3218
     12 OAK       -15.0071   -9.8161    8.7627 O.3         1 SU3      -0.2633
     13 CAL       -10.8712   -9.9652    6.8886 C.3         1 SU3       0.0025
     14 OAM       -13.1594  -10.6008    9.9897 O.2         1 SU3      -0.3774
     15 CAO       -10.6304   -5.5596   13.1579 C.2         1 SU3       0.4317
     16 OAP        -9.4946   -5.1015   13.7338 O.2         1 SU3      -0.3166
     17 NAQ       -11.8484   -5.1509   13.5973 N.am        1 SU3      -0.2080
     18 CAR        -5.6512   -7.3013    4.5968 C.3         1 SU3      -0.0516
     19 CAS        -5.1957   -8.7693    4.4521 C.3         1 SU3      -0.0651
     20 CAT       -11.5198  -11.3902    6.8288 C.3         1 SU3      -0.0558
     21 NAV        -7.9552   -6.2197    7.5445 N.am        1 SU3      -0.2737
     22 CAX        -7.2167   -5.9116    6.3525 C.3         1 SU3       0.1374
     23 CAY        -6.2867   -4.7788    6.3731 C.2         1 SU3       0.2444
     24 CAZ        -6.9080   -7.1674    5.4997 C.3         1 SU3      -0.0066
     25 CBA        -7.9975   -6.1786    5.0425 C.3         1 SU3      -0.0152
     26 CBB       -12.0905   -4.3058   14.6239 C.2         1 SU3       0.0383
     27 CBC       -13.4611   -4.1030   14.7243 C.ar        1 SU3      -0.0374
     28 CBD       -14.0709   -4.8658   13.7293 C.ar        1 SU3      -0.0293
     29 CBE       -13.0356   -5.5103   13.0546 C.2         1 SU3       0.0366
     30 CBF       -14.2178   -3.3188   15.6069 C.ar        1 SU3      -0.0689
     31 CBG       -15.6218   -3.3163   15.4751 C.ar        1 SU3      -0.0688
     32 CBH       -16.2416   -4.0945   14.4749 C.ar        1 SU3      -0.0606
     33 CBI       -15.4767   -4.8830   13.5767 C.ar        1 SU3      -0.0432
     34 CBJ       -16.1526   -5.7234   12.5540 C.3         1 SU3      -0.0194
     35 NBK        -5.7877   -4.3738    7.5316 N.am        1 SU3      -0.1552
     36 OBL        -6.0143   -4.1713    5.3422 O.2         1 SU3      -0.3404
     37 SBM        -4.8623   -2.9807    7.7899 S.o2        1 SU3       0.0645
     38 CBN        -5.2047   -2.2251    9.3993 C.3         1 SU3       0.1004
     39 OBO        -3.3086   -3.3150    7.7027 O.2         1 SU3      -0.1503
     40 OBP        -5.1730   -1.8533    6.7116 O.2         1 SU3      -0.1503
     41 CBQ        -6.4192   -1.2869    9.5126 C.3         1 SU3      -0.0268
     42 CBR        -6.4660   -2.6720   10.1592 C.3         1 SU3      -0.0268
     43 CBS       -16.6749   -7.0495   13.1706 C.3         1 SU3      -0.0433
     44 CBT       -17.3986   -7.9772   12.1573 C.3         1 SU3      -0.0507
     45 CBU       -16.4448   -8.7927   11.2318 C.3         1 SU3      -0.0453
     46 CBV       -17.1166   -9.6649   10.1054 C.3         1 SU3      -0.0072
     47 CBW       -16.0273  -10.5675    9.4339 C.3         1 SU3       0.0824
     48 CBX       -18.2090  -10.6162   10.6989 C.3         1 SU3      -0.0574
     49 CBY       -17.7678   -8.7592    9.0089 C.3         1 SU3      -0.0574
     50 CBZ       -11.1496   -9.2728    5.5144 C.3         1 SU3      -0.0558
     51 CCA        -9.3271  -10.1672    7.0584 C.3         1 SU3      -0.0558
     52 CD1        -9.8249   -7.9953   10.4237 C.3         1 SU3       0.0677
     53 OD2       -10.5459   -6.4303   12.1159 O.3         1 SU3      -0.2338
     54 H1        -10.5136   -5.2545    9.4219 H           1 SU3       0.0803
     55 H2         -8.7844   -4.8685   10.9819 H           1 SU3       0.0342
     56 H3         -7.7285   -6.1295   10.3083 H           1 SU3       0.0342
     57 H4         -8.6628   -7.3327   12.1555 H           1 SU3       0.0673
     58 H5        -11.0960   -9.7231    8.9934 H           1 SU3       0.0805
     59 H6        -13.3227   -8.6420    7.4451 H           1 SU3       0.1899
     60 H7         -5.8494   -6.9095    3.5946 H           1 SU3       0.0265
     61 H8         -4.8286   -6.7355    5.0306 H           1 SU3       0.0265
     62 H9         -4.3341   -8.8310    3.7857 H           1 SU3       0.0230
     63 H10        -5.9957   -9.3814    4.0322 H           1 SU3       0.0230
     64 H11        -4.9115   -9.1791    5.4213 H           1 SU3       0.0230
     65 H12       -11.0643  -11.9967    6.0404 H           1 SU3       0.0237
     66 H13       -12.5896  -11.3246    6.6196 H           1 SU3       0.0237
     67 H14       -11.3899  -11.9171    7.7773 H           1 SU3       0.0237
     68 H15        -7.7302   -7.0442    8.0031 H           1 SU3       0.1839
     69 H16        -7.3424   -8.1020    5.8646 H           1 SU3       0.0312
     70 H17        -7.7627   -5.5596    4.1728 H           1 SU3       0.0279
     71 H18        -9.0252   -6.5369    5.1514 H           1 SU3       0.0279
     72 H19       -11.3941   -3.8730   15.2356 H           1 SU3       0.0373
     73 H20       -13.1588   -6.1454   12.2626 H           1 SU3       0.0361
     74 H21       -13.7614   -2.7699   16.3363 H           1 SU3       0.0557
     75 H22       -16.1909   -2.7570   16.1148 H           1 SU3       0.0599
     76 H23       -17.2619   -4.0878   14.4089 H           1 SU3       0.0557
     77 H24       -15.4689   -5.9459   11.7339 H           1 SU3       0.0426
     78 H25       -16.9870   -5.1649   12.1207 H           1 SU3       0.0426
     79 H26        -6.0099   -4.8983    8.3206 H           1 SU3       0.2148
     80 H27        -4.3564   -1.9377   10.0260 H           1 SU3       0.0559
     81 H28        -7.0480   -1.1693    8.6261 H           1 SU3       0.0285
     82 H29        -6.3254   -0.4559   10.2148 H           1 SU3       0.0285
     83 H30        -6.3846   -2.6878   11.2487 H           1 SU3       0.0285
     84 H31        -7.1407   -3.3724    9.6643 H           1 SU3       0.0285
     85 H32       -17.3851   -6.8034   13.9657 H           1 SU3       0.0287
     86 H33       -15.8458   -7.5952   13.6302 H           1 SU3       0.0287
     87 H34       -18.0860   -7.3772   11.5585 H           1 SU3       0.0267
     88 H35       -17.9977   -8.6839   12.7373 H           1 SU3       0.0267
     89 H36       -15.8531   -9.4480   11.8781 H           1 SU3       0.0271
     90 H37       -15.7437   -8.1017   10.7589 H           1 SU3       0.0271
     91 H38       -15.5930  -11.2336   10.1826 H           1 SU3       0.0617
     92 H39       -16.4878  -11.2035    8.6754 H           1 SU3       0.0617
     93 H40       -19.0578  -10.0518   11.0924 H           1 SU3       0.0236
     94 H41       -17.7927  -11.2205   11.5100 H           1 SU3       0.0236
     95 H42       -18.5950  -11.2946    9.9327 H           1 SU3       0.0236
     96 H43       -17.0399   -8.0492    8.6090 H           1 SU3       0.0236
     97 H44       -18.6091   -8.1909    9.4100 H           1 SU3       0.0236
     98 H45       -18.1424   -9.3641    8.1793 H           1 SU3       0.0236
     99 H46       -10.5881   -8.3464    5.4181 H           1 SU3       0.0237
    100 H47       -12.2103   -9.0425    5.4026 H           1 SU3       0.0237
    101 H48       -10.8505   -9.9129    4.6817 H           1 SU3       0.0237
    102 H49        -9.1075  -10.8312    7.8995 H           1 SU3       0.0237
    103 H50        -8.8329   -9.2130    7.2554 H           1 SU3       0.0237
    104 H51        -8.8832  -10.6044    6.1583 H           1 SU3       0.0237
    105 H52        -9.0122   -8.6961   10.2138 H           1 SU3       0.0553
    106 H53       -10.6683   -8.5456   10.8512 H           1 SU3       0.0553
@<TRIPOS>BOND
     1     1     3   2
     2     1     4   1
     3    21     1  am
     4     4     2   1
     5     2     7  am
     6     2    52   1
     7     4     5   1
     8     5     6   1
     9     6    52   1
    10     6    53   1
    11     7     8   2
    12     7     9   1
    13     9    10   1
    14     9    13   1
    15    10    11  am
    16    11    12   1
    17    11    14   2
    18    12    47   1
    19    13    20   1
    20    13    50   1
    21    13    51   1
    22    15    16   2
    23    15    17  am
    24    53    15   1
    25    17    26   1
    26    17    29   1
    27    18    19   1
    28    24    18   1
    29    22    21   1
    30    22    23   1
    31    22    24   1
    32    22    25   1
    33    23    35  am
    34    23    36   2
    35    24    25   1
    36    26    27   2
    37    27    28  ar
    38    27    30  ar
    39    28    29   2
    40    28    33  ar
    41    30    31  ar
    42    31    32  ar
    43    32    33  ar
    44    33    34   1
    45    34    43   1
    46    35    37  am
    47    37    38   1
    48    37    39   2
    49    37    40   2
    50    38    41   1
    51    38    42   1
    52    41    42   1
    53    43    44   1
    54    44    45   1
    55    45    46   1
    56    46    47   1
    57    46    48   1
    58    46    49   1
    59     4    54   1
    60     5    55   1
    61     5    56   1
    62     6    57   1
    63     9    58   1
    64    10    59   1
    65    18    60   1
    66    18    61   1
    67    19    62   1
    68    19    63   1
    69    19    64   1
    70    20    65   1
    71    20    66   1
    72    20    67   1
    73    21    68   1
    74    24    69   1
    75    25    70   1
    76    25    71   1
    77    26    72   1
    78    29    73   1
    79    30    74   1
    80    31    75   1
    81    32    76   1
    82    34    77   1
    83    34    78   1
    84    35    79   1
    85    38    80   1
    86    41    81   1
    87    41    82   1
    88    42    83   1
    89    42    84   1
    90    43    85   1
    91    43    86   1
    92    44    87   1
    93    44    88   1
    94    45    89   1
    95    45    90   1
    96    47    91   1
    97    47    92   1
    98    48    93   1
    99    48    94   1
   100    48    95   1
   101    49    96   1
   102    49    97   1
   103    49    98   1
   104    50    99   1
   105    50   100   1
   106    50   101   1
   107    51   102   1
   108    51   103   1
   109    51   104   1
   110    52   105   1
   111    52   106   1
@<TRIPOS>SUBSTRUCTURE
     1  SU3      1

