@<TRIPOS>MOLECULE
3su3_ligand_007
   106   111
SMALL
GAST_HUCK
****
This file was generated by PARSER (from files_GN.cpp)

@<TRIPOS>ATOM
      1 C         -12.9426   -7.9734   11.8133 C.2         1 SU3       0.2013
      2 N         -12.7651  -10.3346   11.0591 N.am        1 SU3      -0.2469
      3 O         -13.7785   -8.3163   12.6398 O.2         1 SU3      -0.3947
      4 CA        -12.2239   -8.9808   11.0214 C.3         1 SU3       0.1363
      5 CB        -12.2035   -8.6284    9.5071 C.3         1 SU3       0.0206
      6 CG        -12.1940   -9.9875    8.7932 C.3         1 SU3       0.1158
      7 CAF       -12.8845  -11.0705   12.1813 C.2         1 SU3       0.2070
      8 OAG       -12.2898  -10.6838   13.1818 O.2         1 SU3      -0.3942
      9 CAH       -13.6816  -12.3021   12.3321 C.3         1 SU3       0.1378
     10 NAI       -12.7931  -13.3435   12.7765 N.am        1 SU3      -0.2407
     11 CAJ       -12.5962  -14.5390   12.1818 C.2         1 SU3       0.3218
     12 OAK       -11.8637  -15.4490   12.8689 O.3         1 SU3      -0.2633
     13 CAL       -14.9539  -12.1804   13.2728 C.3         1 SU3       0.0025
     14 OAM       -13.1804  -14.8641   11.0042 O.2         1 SU3      -0.3774
     15 CAO        -9.8211  -10.1896    7.9331 C.2         1 SU3       0.4317
     16 OAP        -9.9595   -9.1564    7.0674 O.2         1 SU3      -0.3166
     17 NAQ        -8.6566  -10.8816    8.0102 N.am        1 SU3      -0.2080
     18 CAR       -14.3616   -3.1166   11.4143 C.3         1 SU3      -0.0516
     19 CAS       -14.7207   -2.4545   12.7636 C.3         1 SU3      -0.0651
     20 CAT       -14.6126  -11.7366   14.7355 C.3         1 SU3      -0.0558
     21 NAV       -12.6894   -6.6748   11.6617 N.am        1 SU3      -0.2737
     22 CAX       -13.3829   -5.6034   12.3140 C.3         1 SU3       0.1374
     23 CAY       -12.6857   -4.9810   13.4189 C.2         1 SU3       0.2444
     24 CAZ       -14.0880   -4.6458   11.3095 C.3         1 SU3      -0.0066
     25 CBA       -14.9297   -5.5716   12.1995 C.3         1 SU3      -0.0152
     26 CBB        -7.5387  -10.6623    7.2797 C.2         1 SU3       0.0383
     27 CBC        -6.5799  -11.6035    7.6323 C.ar        1 SU3      -0.0374
     28 CBD        -7.1311  -12.4140    8.6234 C.ar        1 SU3      -0.0293
     29 CBE        -8.4242  -11.9330    8.8303 C.2         1 SU3       0.0366
     30 CBF        -5.2725  -11.8174    7.1593 C.ar        1 SU3      -0.0689
     31 CBG        -4.5280  -12.8813    7.7067 C.ar        1 SU3      -0.0688
     32 CBH        -5.0812  -13.7003    8.7111 C.ar        1 SU3      -0.0606
     33 CBI        -6.3986  -13.4799    9.1986 C.ar        1 SU3      -0.0432
     34 CBJ        -6.9452  -14.3351   10.2860 C.3         1 SU3      -0.0194
     35 NBK       -13.1103   -5.1965   14.6568 N.am        1 SU3      -0.1552
     36 OBL       -11.6806   -4.3308   13.1663 O.2         1 SU3      -0.3404
     37 SBM       -12.4315   -4.5763   16.0735 S.o2        1 SU3       0.0645
     38 CBN       -12.0031   -5.8367   17.2962 C.3         1 SU3       0.1004
     39 OBO       -11.0700   -3.7989   15.8127 O.2         1 SU3      -0.1503
     40 OBP       -13.4235   -3.5166   16.7184 O.2         1 SU3      -0.1503
     41 CBQ       -13.1373   -6.7453   17.7892 C.3         1 SU3      -0.0268
     42 CBR       -12.0458   -7.3115   16.8729 C.3         1 SU3      -0.0268
     43 CBS        -7.3377  -15.7548    9.7987 C.3         1 SU3      -0.0433
     44 CBT        -7.9434  -16.6522   10.9154 C.3         1 SU3      -0.0507
     45 CBU        -9.4298  -16.3418   11.2683 C.3         1 SU3      -0.0453
     46 CBV       -10.0687  -17.1439   12.4647 C.3         1 SU3      -0.0072
     47 CBW       -11.6009  -16.8197   12.5352 C.3         1 SU3       0.0824
     48 CBX        -9.9219  -18.6867   12.2551 C.3         1 SU3      -0.0574
     49 CBY        -9.4108  -16.7446   13.8272 C.3         1 SU3      -0.0574
     50 CBZ       -15.9704  -11.1562   12.6653 C.3         1 SU3      -0.0558
     51 CCA       -15.6869  -13.5651   13.3569 C.3         1 SU3      -0.0558
     52 CD1       -13.0519  -10.8374    9.7453 C.3         1 SU3       0.0677
     53 OD2       -10.8770  -10.5582    8.7119 O.3         1 SU3      -0.2338
     54 H1        -11.1867   -9.0128   11.3722 H           1 SU3       0.0803
     55 H2        -11.3349   -8.0176    9.2421 H           1 SU3       0.0342
     56 H3        -13.1104   -8.0907    9.2100 H           1 SU3       0.0342
     57 H4        -12.6463   -9.9380    7.7979 H           1 SU3       0.0673
     58 H5        -14.0823  -12.5823   11.3587 H           1 SU3       0.0805
     59 H6        -12.3502  -13.2053   13.6314 H           1 SU3       0.1899
     60 H7        -13.4861   -2.6018   11.0203 H           1 SU3       0.0265
     61 H8        -15.1882   -2.9069   10.7283 H           1 SU3       0.0265
     62 H9        -14.8929   -1.3889   12.6010 H           1 SU3       0.0230
     63 H10       -13.9102   -2.5558   13.4802 H           1 SU3       0.0230
     64 H11       -15.6309   -2.8734   13.1876 H           1 SU3       0.0230
     65 H12       -15.4934  -11.7980   15.3785 H           1 SU3       0.0237
     66 H13       -14.2649  -10.7033   14.7663 H           1 SU3       0.0237
     67 H14       -13.8375  -12.3744   15.1634 H           1 SU3       0.0237
     68 H15       -12.0083   -6.4213   11.0200 H           1 SU3       0.1839
     69 H16       -14.0425   -4.9973   10.2749 H           1 SU3       0.0312
     70 H17       -15.4484   -5.1389   13.0572 H           1 SU3       0.0279
     71 H18       -15.3917   -6.4160   11.6813 H           1 SU3       0.0279
     72 H19        -7.4101   -9.9381    6.5690 H           1 SU3       0.0373
     73 H20        -9.0969  -12.3273    9.4905 H           1 SU3       0.0361
     74 H21        -4.8747  -11.2213    6.4315 H           1 SU3       0.0557
     75 H22        -3.5786  -13.0617    7.3695 H           1 SU3       0.0599
     76 H23        -4.5142  -14.4606    9.0962 H           1 SU3       0.0557
     77 H24        -7.8199  -13.8629   10.7288 H           1 SU3       0.0426
     78 H25        -6.1981  -14.4152   11.0799 H           1 SU3       0.0426
     79 H26       -13.8996   -5.7506   14.7659 H           1 SU3       0.2148
     80 H27       -11.2654   -5.5872   18.0613 H           1 SU3       0.0559
     81 H28       -14.1176   -6.6166   17.3263 H           1 SU3       0.0285
     82 H29       -13.0770   -7.0562   18.8339 H           1 SU3       0.0285
     83 H30       -11.3304   -7.9723   17.3628 H           1 SU3       0.0285
     84 H31       -12.3726   -7.5451   15.8583 H           1 SU3       0.0285
     85 H32        -6.4394  -16.2501    9.4173 H           1 SU3       0.0287
     86 H33        -8.0477  -15.6785    8.9700 H           1 SU3       0.0287
     87 H34        -7.3201  -16.5641   11.8065 H           1 SU3       0.0267
     88 H35        -7.8793  -17.6869   10.5694 H           1 SU3       0.0267
     89 H36       -10.0186  -16.5289   10.3658 H           1 SU3       0.0271
     90 H37        -9.5205  -15.2766   11.4874 H           1 SU3       0.0271
     91 H38       -12.0834  -17.0939   11.5924 H           1 SU3       0.0617
     92 H39       -12.0723  -17.4189   13.3188 H           1 SU3       0.0617
     93 H40        -8.8759  -18.9941   12.3004 H           1 SU3       0.0236
     94 H41       -10.3261  -18.9825   11.2842 H           1 SU3       0.0236
     95 H42       -10.4588  -19.2395   13.0297 H           1 SU3       0.0236
     96 H43        -9.4395  -15.6628   13.9750 H           1 SU3       0.0236
     97 H44        -8.3698  -17.0598   13.8698 H           1 SU3       0.0236
     98 H45        -9.9320  -17.2158   14.6638 H           1 SU3       0.0236
     99 H46       -16.2672  -11.4538   11.6566 H           1 SU3       0.0237
    100 H47       -15.5336  -10.1596   12.6059 H           1 SU3       0.0237
    101 H48       -16.8734  -11.0872   13.2762 H           1 SU3       0.0237
    102 H49       -15.0653  -14.3077   13.8611 H           1 SU3       0.0237
    103 H50       -15.9246  -13.9419   12.3598 H           1 SU3       0.0237
    104 H51       -16.6214  -13.4852   13.9168 H           1 SU3       0.0237
    105 H52       -14.1184  -10.7157    9.5268 H           1 SU3       0.0553
    106 H53       -12.7799  -11.8913    9.6189 H           1 SU3       0.0553
@<TRIPOS>BOND
     1     1     3   2
     2     1     4   1
     3    21     1  am
     4     4     2   1
     5     2     7  am
     6     2    52   1
     7     4     5   1
     8     5     6   1
     9     6    52   1
    10     6    53   1
    11     7     8   2
    12     7     9   1
    13     9    10   1
    14     9    13   1
    15    10    11  am
    16    11    12   1
    17    11    14   2
    18    12    47   1
    19    13    20   1
    20    13    50   1
    21    13    51   1
    22    15    16   2
    23    15    17  am
    24    53    15   1
    25    17    26   1
    26    17    29   1
    27    18    19   1
    28    24    18   1
    29    22    21   1
    30    22    23   1
    31    22    24   1
    32    22    25   1
    33    23    35  am
    34    23    36   2
    35    24    25   1
    36    26    27   2
    37    27    28  ar
    38    27    30  ar
    39    28    29   2
    40    28    33  ar
    41    30    31  ar
    42    31    32  ar
    43    32    33  ar
    44    33    34   1
    45    34    43   1
    46    35    37  am
    47    37    38   1
    48    37    39   2
    49    37    40   2
    50    38    41   1
    51    38    42   1
    52    41    42   1
    53    43    44   1
    54    44    45   1
    55    45    46   1
    56    46    47   1
    57    46    48   1
    58    46    49   1
    59     4    54   1
    60     5    55   1
    61     5    56   1
    62     6    57   1
    63     9    58   1
    64    10    59   1
    65    18    60   1
    66    18    61   1
    67    19    62   1
    68    19    63   1
    69    19    64   1
    70    20    65   1
    71    20    66   1
    72    20    67   1
    73    21    68   1
    74    24    69   1
    75    25    70   1
    76    25    71   1
    77    26    72   1
    78    29    73   1
    79    30    74   1
    80    31    75   1
    81    32    76   1
    82    34    77   1
    83    34    78   1
    84    35    79   1
    85    38    80   1
    86    41    81   1
    87    41    82   1
    88    42    83   1
    89    42    84   1
    90    43    85   1
    91    43    86   1
    92    44    87   1
    93    44    88   1
    94    45    89   1
    95    45    90   1
    96    47    91   1
    97    47    92   1
    98    48    93   1
    99    48    94   1
   100    48    95   1
   101    49    96   1
   102    49    97   1
   103    49    98   1
   104    50    99   1
   105    50   100   1
   106    50   101   1
   107    51   102   1
   108    51   103   1
   109    51   104   1
   110    52   105   1
   111    52   106   1
@<TRIPOS>SUBSTRUCTURE
     1  SU3      1

