@<TRIPOS>MOLECULE
3su3_ligand_037
   106   111
SMALL
GAST_HUCK
****
This file was generated by PARSER (from files_GN.cpp)

@<TRIPOS>ATOM
      1 C         -19.4866   -5.1335   11.1099 C.2         1 SU3       0.2013
      2 N         -17.0453   -5.0004   10.9605 N.am        1 SU3      -0.2469
      3 O         -19.9808   -4.3450   11.9122 O.2         1 SU3      -0.3947
      4 CA        -18.1936   -5.7623   11.4129 C.3         1 SU3       0.1363
      5 CB        -17.9752   -5.9886   12.9337 C.3         1 SU3       0.0206
      6 CG        -16.4757   -5.7350   13.1489 C.3         1 SU3       0.1158
      7 CAF       -16.8350   -4.6534    9.6735 C.2         1 SU3       0.2070
      8 OAG       -17.5656   -5.1540    8.8258 O.2         1 SU3      -0.3942
      9 CAH       -15.7506   -3.7936    9.1513 C.3         1 SU3       0.1378
     10 NAI       -14.9119   -4.6471    8.3478 N.am        1 SU3      -0.2407
     11 CAJ       -13.5667   -4.7645    8.4374 C.2         1 SU3       0.3218
     12 OAK       -12.9242   -5.4566    7.4617 O.3         1 SU3      -0.2633
     13 CAL       -16.1782   -2.4322    8.4191 C.3         1 SU3       0.0025
     14 OAM       -12.8563   -4.1164    9.3918 O.2         1 SU3      -0.3774
     15 CAO       -15.5646   -7.9537   13.8904 C.2         1 SU3       0.4317
     16 OAP       -16.1955   -7.8759   15.0861 O.2         1 SU3      -0.3166
     17 NAQ       -14.7724   -9.0138   13.5959 N.am        1 SU3      -0.2080
     18 CAR       -22.1233   -2.2624    8.6688 C.3         1 SU3      -0.0516
     19 CAS       -21.4153   -0.9010    8.8640 C.3         1 SU3      -0.0651
     20 CAT       -17.7112   -2.2984    8.1232 C.3         1 SU3      -0.0558
     21 NAV       -20.1163   -5.3912    9.9678 N.am        1 SU3      -0.2737
     22 CAX       -21.3256   -4.7511    9.5247 C.3         1 SU3       0.1374
     23 CAY       -22.5211   -4.9727   10.3226 C.2         1 SU3       0.2444
     24 CAZ       -21.1066   -3.4428    8.7141 C.3         1 SU3      -0.0066
     25 CBA       -21.5405   -4.7288    7.9960 C.3         1 SU3      -0.0152
     26 CBB       -14.4998  -10.0504   14.4189 C.2         1 SU3       0.0383
     27 CBC       -13.6375  -10.9197   13.7666 C.ar        1 SU3      -0.0374
     28 CBD       -13.3903  -10.3966   12.4992 C.ar        1 SU3      -0.0293
     29 CBE       -14.1099   -9.2048   12.4326 C.2         1 SU3       0.0366
     30 CBF       -13.0535  -12.1269   14.1887 C.ar        1 SU3      -0.0689
     31 CBG       -12.2109  -12.8099   13.2918 C.ar        1 SU3      -0.0688
     32 CBH       -11.9535  -12.2820   12.0066 C.ar        1 SU3      -0.0606
     33 CBI       -12.5408  -11.0605   11.5850 C.ar        1 SU3      -0.0432
     34 CBJ       -12.2460  -10.5096   10.2341 C.3         1 SU3      -0.0194
     35 NBK       -23.1469   -6.1355   10.2244 N.am        1 SU3      -0.1552
     36 OBL       -22.8516   -4.1151   11.1342 O.2         1 SU3      -0.3404
     37 SBM       -24.4260   -6.6524   11.1958 S.o2        1 SU3       0.0645
     38 CBN       -23.9283   -7.6729   12.6006 C.3         1 SU3       0.1004
     39 OBO       -25.3406   -5.4245   11.6376 O.2         1 SU3      -0.1503
     40 OBP       -25.3803   -7.5212   10.2612 O.2         1 SU3      -0.1503
     41 CBQ       -22.8133   -8.7034   12.3709 C.3         1 SU3      -0.0268
     42 CBR       -22.5383   -7.4509   13.2145 C.3         1 SU3      -0.0268
     43 CBS       -10.8696   -9.7942   10.1892 C.3         1 SU3      -0.0433
     44 CBT       -10.5411   -9.1368    8.8201 C.3         1 SU3      -0.0507
     45 CBU       -11.2101   -7.7459    8.5929 C.3         1 SU3      -0.0453
     46 CBV       -11.0041   -7.0725    7.1840 C.3         1 SU3      -0.0072
     47 CBW       -11.5085   -5.5883    7.2419 C.3         1 SU3       0.0824
     48 CBX        -9.4885   -7.0456    6.7831 C.3         1 SU3      -0.0574
     49 CBY       -11.8030   -7.8275    6.0731 C.3         1 SU3      -0.0574
     50 CBZ       -15.7939   -1.1943    9.3112 C.3         1 SU3      -0.0558
     51 CCA       -15.4422   -2.2284    7.0409 C.3         1 SU3      -0.0558
     52 CD1       -16.1130   -4.7547   12.0210 C.3         1 SU3       0.0677
     53 OD2       -15.7013   -6.9350   13.0003 O.3         1 SU3      -0.2338
     54 H1        -18.1407   -6.7462   10.9274 H           1 SU3       0.0803
     55 H2        -18.2658   -6.9962   13.2370 H           1 SU3       0.0342
     56 H3        -18.5378   -5.2748   13.5462 H           1 SU3       0.0342
     57 H4        -16.2634   -5.2828   14.1223 H           1 SU3       0.0673
     58 H5        -15.1458   -3.4914   10.0030 H           1 SU3       0.0805
     59 H6        -15.3324   -5.0963    7.5982 H           1 SU3       0.1899
     60 H7        -22.6276   -2.2542    7.6966 H           1 SU3       0.0265
     61 H8        -22.8830   -2.3738    9.4434 H           1 SU3       0.0265
     62 H9        -22.1611   -0.1060    8.9627 H           1 SU3       0.0230
     63 H10       -20.7831   -0.6876    7.9986 H           1 SU3       0.0230
     64 H11       -20.7937   -0.9144    9.7670 H           1 SU3       0.0230
     65 H12       -17.9518   -1.3411    7.6582 H           1 SU3       0.0237
     66 H13       -18.2904   -2.3615    9.0512 H           1 SU3       0.0237
     67 H14       -18.0472   -3.0865    7.4422 H           1 SU3       0.0237
     68 H15       -19.7031   -6.0288    9.3599 H           1 SU3       0.1839
     69 H16       -20.0757   -3.2059    8.4443 H           1 SU3       0.0312
     70 H17       -22.5742   -4.7392    7.6383 H           1 SU3       0.0279
     71 H18       -20.7697   -5.2120    7.3888 H           1 SU3       0.0279
     72 H19       -14.8494  -10.1779   15.3720 H           1 SU3       0.0373
     73 H20       -14.1323   -8.5765   11.6266 H           1 SU3       0.0361
     74 H21       -13.2372  -12.4979   15.1238 H           1 SU3       0.0557
     75 H22       -11.7770  -13.6893   13.5779 H           1 SU3       0.0599
     76 H23       -11.3311  -12.7950   11.3803 H           1 SU3       0.0557
     77 H24       -13.0259   -9.8082    9.9311 H           1 SU3       0.0426
     78 H25       -12.2602  -11.3216    9.5019 H           1 SU3       0.0426
     79 H26       -22.8204   -6.7747    9.5687 H           1 SU3       0.2148
     80 H27       -24.7032   -7.9861   13.3045 H           1 SU3       0.0559
     81 H28       -22.3344   -8.7182   11.3892 H           1 SU3       0.0285
     82 H29       -22.9130   -9.6352   12.9330 H           1 SU3       0.0285
     83 H30       -22.4657   -7.6224   14.2892 H           1 SU3       0.0285
     84 H31       -21.8967   -6.6981   12.7499 H           1 SU3       0.0285
     85 H32       -10.0927  -10.5347   10.4068 H           1 SU3       0.0287
     86 H33       -10.8209   -9.0339   10.9768 H           1 SU3       0.0287
     87 H34       -10.8207   -9.8246    8.0210 H           1 SU3       0.0267
     88 H35        -9.4586   -9.0061    8.7788 H           1 SU3       0.0267
     89 H36       -10.8192   -7.0752    9.3637 H           1 SU3       0.0271
     90 H37       -12.2832   -7.8394    8.7739 H           1 SU3       0.0271
     91 H38       -10.9453   -5.0370    7.9990 H           1 SU3       0.0617
     92 H39       -11.3120   -5.0969    6.2849 H           1 SU3       0.0617
     93 H40        -9.1112   -8.0540    6.6017 H           1 SU3       0.0236
     94 H41        -8.8878   -6.5901    7.5740 H           1 SU3       0.0236
     95 H42        -9.3351   -6.4714    5.8651 H           1 SU3       0.0236
     96 H43       -12.8662   -7.8739    6.3220 H           1 SU3       0.0236
     97 H44       -11.4398   -8.8498    5.9486 H           1 SU3       0.0236
     98 H45       -11.7018   -7.3179    5.1108 H           1 SU3       0.0236
     99 H46       -14.7155   -1.1593    9.4894 H           1 SU3       0.0237
    100 H47       -16.2921   -1.2533   10.2832 H           1 SU3       0.0237
    101 H48       -16.0787   -0.2512    8.8401 H           1 SU3       0.0237
    102 H49       -15.7143   -3.0216    6.3404 H           1 SU3       0.0237
    103 H50       -14.3579   -2.2483    7.1706 H           1 SU3       0.0237
    104 H51       -15.7034   -1.2725    6.5833 H           1 SU3       0.0237
    105 H52       -16.2049   -3.7206   12.3643 H           1 SU3       0.0553
    106 H53       -15.0815   -4.9379   11.7148 H           1 SU3       0.0553
@<TRIPOS>BOND
     1     1     3   2
     2     1     4   1
     3    21     1  am
     4     4     2   1
     5     2     7  am
     6     2    52   1
     7     4     5   1
     8     5     6   1
     9     6    52   1
    10     6    53   1
    11     7     8   2
    12     7     9   1
    13     9    10   1
    14     9    13   1
    15    10    11  am
    16    11    12   1
    17    11    14   2
    18    12    47   1
    19    13    20   1
    20    13    50   1
    21    13    51   1
    22    15    16   2
    23    15    17  am
    24    53    15   1
    25    17    26   1
    26    17    29   1
    27    18    19   1
    28    24    18   1
    29    22    21   1
    30    22    23   1
    31    22    24   1
    32    22    25   1
    33    23    35  am
    34    23    36   2
    35    24    25   1
    36    26    27   2
    37    27    28  ar
    38    27    30  ar
    39    28    29   2
    40    28    33  ar
    41    30    31  ar
    42    31    32  ar
    43    32    33  ar
    44    33    34   1
    45    34    43   1
    46    35    37  am
    47    37    38   1
    48    37    39   2
    49    37    40   2
    50    38    41   1
    51    38    42   1
    52    41    42   1
    53    43    44   1
    54    44    45   1
    55    45    46   1
    56    46    47   1
    57    46    48   1
    58    46    49   1
    59     4    54   1
    60     5    55   1
    61     5    56   1
    62     6    57   1
    63     9    58   1
    64    10    59   1
    65    18    60   1
    66    18    61   1
    67    19    62   1
    68    19    63   1
    69    19    64   1
    70    20    65   1
    71    20    66   1
    72    20    67   1
    73    21    68   1
    74    24    69   1
    75    25    70   1
    76    25    71   1
    77    26    72   1
    78    29    73   1
    79    30    74   1
    80    31    75   1
    81    32    76   1
    82    34    77   1
    83    34    78   1
    84    35    79   1
    85    38    80   1
    86    41    81   1
    87    41    82   1
    88    42    83   1
    89    42    84   1
    90    43    85   1
    91    43    86   1
    92    44    87   1
    93    44    88   1
    94    45    89   1
    95    45    90   1
    96    47    91   1
    97    47    92   1
    98    48    93   1
    99    48    94   1
   100    48    95   1
   101    49    96   1
   102    49    97   1
   103    49    98   1
   104    50    99   1
   105    50   100   1
   106    50   101   1
   107    51   102   1
   108    51   103   1
   109    51   104   1
   110    52   105   1
   111    52   106   1
@<TRIPOS>SUBSTRUCTURE
     1  SU3      1

