@<TRIPOS>MOLECULE
3su3_ligand_056
   106   111
SMALL
GAST_HUCK
****
This file was generated by PARSER (from files_GN.cpp)

@<TRIPOS>ATOM
      1 C         -10.8668   -5.6195   10.0992 C.2         1 SU3       0.2013
      2 N         -13.2709   -5.3363    9.6456 N.am        1 SU3      -0.2469
      3 O         -10.7958   -4.5263   10.6468 O.2         1 SU3      -0.3947
      4 CA        -12.0013   -5.9013    9.2253 C.3         1 SU3       0.1363
      5 CB        -11.7444   -5.3311    7.8090 C.3         1 SU3       0.0206
      6 CG        -13.1593   -5.0175    7.3017 C.3         1 SU3       0.1158
      7 CAF       -13.8376   -5.5787   10.8436 C.2         1 SU3       0.2070
      8 OAG       -13.3623   -6.4866   11.5196 O.2         1 SU3      -0.3942
      9 CAH       -15.0168   -4.9016   11.4196 C.3         1 SU3       0.1378
     10 NAI       -15.9963   -5.9280   11.6835 N.am        1 SU3      -0.2407
     11 CAJ       -17.2566   -5.9887   11.1892 C.2         1 SU3       0.3218
     12 OAK       -18.0792   -6.9592   11.6722 O.3         1 SU3      -0.2633
     13 CAL       -14.7389   -3.9452   12.6765 C.3         1 SU3       0.0025
     14 OAM       -17.7260   -5.0721   10.3063 O.2         1 SU3      -0.3774
     15 CAO       -13.5497   -6.8852    5.6507 C.2         1 SU3       0.4317
     16 OAP       -12.6256   -6.4130    4.7807 O.2         1 SU3      -0.3166
     17 NAQ       -14.2186   -8.0393    5.4037 N.am        1 SU3      -0.2080
     18 CAR        -7.8058   -5.3349   13.3303 C.3         1 SU3      -0.0516
     19 CAS        -8.0455   -5.5647   14.8381 C.3         1 SU3      -0.0651
     20 CAT       -14.6792   -2.4547   12.1930 C.3         1 SU3      -0.0558
     21 NAV        -9.8725   -6.4929   10.1820 N.am        1 SU3      -0.2737
     22 CAX        -8.6675   -6.3107   10.9358 C.3         1 SU3       0.1374
     23 CAY        -7.5152   -5.7748   10.2091 C.2         1 SU3       0.2444
     24 CAZ        -8.8340   -6.1158   12.4693 C.3         1 SU3      -0.0066
     25 CBA        -8.4314   -7.4904   11.9151 C.3         1 SU3      -0.0152
     26 CBB       -14.0919   -8.8223    4.3070 C.2         1 SU3       0.0383
     27 CBC       -14.9312   -9.9199    4.4439 C.ar        1 SU3      -0.0374
     28 CBD       -15.5822   -9.8019    5.6716 C.ar        1 SU3      -0.0293
     29 CBE       -15.1188   -8.6120    6.2334 C.2         1 SU3       0.0366
     30 CBF       -15.1789  -11.0125    3.5923 C.ar        1 SU3      -0.0689
     31 CBG       -16.1054  -11.9874    4.0052 C.ar        1 SU3      -0.0688
     32 CBH       -16.7615  -11.8709    5.2504 C.ar        1 SU3      -0.0606
     33 CBI       -16.5063  -10.7746    6.1167 C.ar        1 SU3      -0.0432
     34 CBJ       -17.1976  -10.6806    7.4323 C.3         1 SU3      -0.0194
     35 NBK        -7.7005   -5.0401    9.1172 N.am        1 SU3      -0.1552
     36 OBL        -6.3798   -6.0675   10.5609 O.2         1 SU3      -0.3404
     37 SBM        -6.4715   -4.5002    8.0894 S.o2        1 SU3       0.0645
     38 CBN        -7.0114   -3.0617    7.1361 C.3         1 SU3       0.1004
     39 OBO        -5.2585   -3.9713    8.9695 O.2         1 SU3      -0.1503
     40 OBP        -6.0178   -5.6952    7.1424 O.2         1 SU3      -0.1503
     41 CBQ        -6.6336   -2.9432    5.6534 C.3         1 SU3      -0.0268
     42 CBR        -8.0681   -3.3158    6.0538 C.3         1 SU3      -0.0268
     43 CBS       -18.6649  -10.1962    7.2852 C.3         1 SU3      -0.0433
     44 CBT       -19.4323  -10.0594    8.6311 C.3         1 SU3      -0.0507
     45 CBU       -19.0961   -8.7715    9.4448 C.3         1 SU3      -0.0453
     46 CBV       -19.8029   -8.5913   10.8420 C.3         1 SU3      -0.0072
     47 CBW       -19.4789   -7.1608   11.3990 C.3         1 SU3       0.0824
     48 CBX       -21.3567   -8.7145   10.7096 C.3         1 SU3      -0.0574
     49 CBY       -19.2977   -9.6576   11.8672 C.3         1 SU3      -0.0574
     50 CBZ       -15.8741   -4.0363   13.7537 C.3         1 SU3      -0.0558
     51 CCA       -13.3893   -4.2168   13.4314 C.3         1 SU3      -0.0558
     52 CD1       -13.8786   -4.5719    8.5883 C.3         1 SU3       0.0677
     53 OD2       -13.7957   -6.2025    6.8013 O.3         1 SU3      -0.2338
     54 H1        -12.1365   -6.9856    9.1422 H           1 SU3       0.0803
     55 H2        -11.2209   -6.0515    7.1737 H           1 SU3       0.0342
     56 H3        -11.1618   -4.4028    7.8321 H           1 SU3       0.0342
     57 H4        -13.1706   -4.2277    6.5443 H           1 SU3       0.0673
     58 H5        -15.4397   -4.2646   10.6473 H           1 SU3       0.0805
     59 H6        -15.7535   -6.6103   12.3296 H           1 SU3       0.1899
     60 H7         -6.7801   -5.6312   13.0973 H           1 SU3       0.0265
     61 H8         -7.9117   -4.2703   13.1078 H           1 SU3       0.0265
     62 H9         -7.3029   -5.0175   15.4201 H           1 SU3       0.0230
     63 H10        -7.9578   -6.6267   15.0719 H           1 SU3       0.0230
     64 H11        -9.0395   -5.2197   15.1292 H           1 SU3       0.0230
     65 H12       -14.4438   -1.7731   13.0149 H           1 SU3       0.0237
     66 H13       -15.6409   -2.1446   11.7761 H           1 SU3       0.0237
     67 H14       -13.9149   -2.3297   11.4213 H           1 SU3       0.0237
     68 H15        -9.9412   -7.3081    9.6587 H           1 SU3       0.1839
     69 H16        -9.8731   -6.0730   12.8083 H           1 SU3       0.0312
     70 H17        -7.4005   -7.7967   12.1066 H           1 SU3       0.0279
     71 H18        -9.2124   -8.2534   11.9744 H           1 SU3       0.0279
     72 H19       -13.4821   -8.6465    3.5042 H           1 SU3       0.0373
     73 H20       -15.4141   -8.2397    7.1383 H           1 SU3       0.0361
     74 H21       -14.6987  -11.0926    2.6936 H           1 SU3       0.0557
     75 H22       -16.3026  -12.7877    3.4002 H           1 SU3       0.0599
     76 H23       -17.4253  -12.5974    5.5266 H           1 SU3       0.0557
     77 H24       -16.6600  -10.0028    8.0951 H           1 SU3       0.0426
     78 H25       -17.1824  -11.6619    7.9123 H           1 SU3       0.0426
     79 H26        -8.6110   -4.8690    8.8290 H           1 SU3       0.2148
     80 H27        -7.1309   -2.1160    7.6695 H           1 SU3       0.0559
     81 H28        -6.0404   -3.7534    5.2256 H           1 SU3       0.0285
     82 H29        -6.5044   -1.9283    5.2745 H           1 SU3       0.0285
     83 H30        -8.8067   -2.5256    5.9098 H           1 SU3       0.0285
     84 H31        -8.3449   -4.3532    5.8538 H           1 SU3       0.0285
     85 H32       -19.2031  -10.9199    6.6651 H           1 SU3       0.0287
     86 H33       -18.6848   -9.2366    6.7600 H           1 SU3       0.0287
     87 H34       -19.2439  -10.9482    9.2361 H           1 SU3       0.0267
     88 H35       -20.4978  -10.0450    8.3898 H           1 SU3       0.0267
     89 H36       -19.3529   -7.9161    8.8118 H           1 SU3       0.0271
     90 H37       -18.0151   -8.7354    9.5997 H           1 SU3       0.0271
     91 H38       -19.8534   -6.4001   10.7074 H           1 SU3       0.0617
     92 H39       -19.9963   -7.0062   12.3492 H           1 SU3       0.0617
     93 H40       -21.6495   -9.7291   10.4357 H           1 SU3       0.0236
     94 H41       -21.7353   -8.0310    9.9467 H           1 SU3       0.0236
     95 H42       -21.8505   -8.4779   11.6544 H           1 SU3       0.0236
     96 H43       -18.2095   -9.6323   11.9522 H           1 SU3       0.0236
     97 H44       -19.5902  -10.6637   11.5653 H           1 SU3       0.0236
     98 H45       -19.7201   -9.4729   12.8573 H           1 SU3       0.0236
     99 H46       -15.8952   -5.0292   14.2080 H           1 SU3       0.0237
    100 H47       -16.8498   -3.8439   13.3060 H           1 SU3       0.0237
    101 H48       -15.7265   -3.3113   14.5579 H           1 SU3       0.0237
    102 H49       -12.5296   -4.0730   12.7681 H           1 SU3       0.0237
    103 H50       -13.3590   -5.2383   13.8196 H           1 SU3       0.0237
    104 H51       -13.2668   -3.5394   14.2818 H           1 SU3       0.0237
    105 H52       -13.7317   -3.5037    8.7712 H           1 SU3       0.0553
    106 H53       -14.9480   -4.7763    8.4795 H           1 SU3       0.0553
@<TRIPOS>BOND
     1     1     3   2
     2     1     4   1
     3    21     1  am
     4     4     2   1
     5     2     7  am
     6     2    52   1
     7     4     5   1
     8     5     6   1
     9     6    52   1
    10     6    53   1
    11     7     8   2
    12     7     9   1
    13     9    10   1
    14     9    13   1
    15    10    11  am
    16    11    12   1
    17    11    14   2
    18    12    47   1
    19    13    20   1
    20    13    50   1
    21    13    51   1
    22    15    16   2
    23    15    17  am
    24    53    15   1
    25    17    26   1
    26    17    29   1
    27    18    19   1
    28    24    18   1
    29    22    21   1
    30    22    23   1
    31    22    24   1
    32    22    25   1
    33    23    35  am
    34    23    36   2
    35    24    25   1
    36    26    27   2
    37    27    28  ar
    38    27    30  ar
    39    28    29   2
    40    28    33  ar
    41    30    31  ar
    42    31    32  ar
    43    32    33  ar
    44    33    34   1
    45    34    43   1
    46    35    37  am
    47    37    38   1
    48    37    39   2
    49    37    40   2
    50    38    41   1
    51    38    42   1
    52    41    42   1
    53    43    44   1
    54    44    45   1
    55    45    46   1
    56    46    47   1
    57    46    48   1
    58    46    49   1
    59     4    54   1
    60     5    55   1
    61     5    56   1
    62     6    57   1
    63     9    58   1
    64    10    59   1
    65    18    60   1
    66    18    61   1
    67    19    62   1
    68    19    63   1
    69    19    64   1
    70    20    65   1
    71    20    66   1
    72    20    67   1
    73    21    68   1
    74    24    69   1
    75    25    70   1
    76    25    71   1
    77    26    72   1
    78    29    73   1
    79    30    74   1
    80    31    75   1
    81    32    76   1
    82    34    77   1
    83    34    78   1
    84    35    79   1
    85    38    80   1
    86    41    81   1
    87    41    82   1
    88    42    83   1
    89    42    84   1
    90    43    85   1
    91    43    86   1
    92    44    87   1
    93    44    88   1
    94    45    89   1
    95    45    90   1
    96    47    91   1
    97    47    92   1
    98    48    93   1
    99    48    94   1
   100    48    95   1
   101    49    96   1
   102    49    97   1
   103    49    98   1
   104    50    99   1
   105    50   100   1
   106    50   101   1
   107    51   102   1
   108    51   103   1
   109    51   104   1
   110    52   105   1
   111    52   106   1
@<TRIPOS>SUBSTRUCTURE
     1  SU3      1

