@<TRIPOS>MOLECULE
3su5_ligand_002
   106   111
SMALL
GAST_HUCK
****
This file was generated by PARSER (from files_GN.cpp)

@<TRIPOS>ATOM
      1 C          -9.8249   -9.4330    8.2178 C.2         1 SU3       0.2013
      2 N         -10.2872   -7.9062   10.0087 N.am        1 SU3      -0.2469
      3 O          -9.2916  -10.5343    8.2433 O.2         1 SU3      -0.3947
      4 CA        -10.7539   -9.0650    9.2799 C.3         1 SU3       0.1363
      5 CB        -12.1629   -8.6856    8.7729 C.3         1 SU3       0.0206
      6 CG        -12.1884   -7.1476    8.7463 C.3         1 SU3       0.1158
      7 CAF        -9.2356   -7.9426   10.8665 C.2         1 SU3       0.2070
      8 OAG        -8.7231   -9.0331   11.0996 O.2         1 SU3      -0.3942
      9 CAH        -8.8081   -6.8248   11.7311 C.3         1 SU3       0.1378
     10 NAI        -9.6528   -6.8766   12.9004 N.am        1 SU3      -0.2407
     11 CAJ       -10.3466   -5.8243   13.3913 C.2         1 SU3       0.3218
     12 OAK       -10.9084   -5.9281   14.6214 O.3         1 SU3      -0.2633
     13 CAL        -7.2756   -6.6434   12.1302 C.3         1 SU3       0.0025
     14 OAM       -10.3714   -4.6370   12.7410 O.2         1 SU3      -0.3774
     15 CAO       -14.6576   -6.6830    8.4595 C.2         1 SU3       0.4317
     16 OAP       -14.7116   -7.2169    7.2136 O.2         1 SU3      -0.3166
     17 NAQ       -15.7880   -6.2786    9.0952 N.am        1 SU3      -0.2080
     18 CAR        -6.5620   -9.6031    4.7296 C.3         1 SU3      -0.0516
     19 CAS        -5.3602   -8.8827    5.3837 C.3         1 SU3      -0.0651
     20 CAT        -6.5205   -5.8354   11.0215 C.3         1 SU3      -0.0558
     21 NAV        -9.5757   -8.5512    7.2578 N.am        1 SU3      -0.2737
     22 CAX        -8.6868   -8.5711    6.1316 C.3         1 SU3       0.1374
     23 CAY        -8.2375   -7.2298    5.7921 C.2         1 SU3       0.2444
     24 CAZ        -7.7726   -9.7438    5.6898 C.3         1 SU3      -0.0066
     25 CBA        -9.1526   -9.5447    5.0295 C.3         1 SU3      -0.0152
     26 CBB       -17.0570   -6.3148    8.6233 C.2         1 SU3       0.0383
     27 CBC       -17.9287   -5.9226    9.6365 C.ar        1 SU3      -0.0374
     28 CBD       -17.1494   -5.6373   10.7571 C.ar        1 SU3      -0.0293
     29 CBE       -15.8285   -5.8341   10.3711 C.2         1 SU3       0.0366
     30 CBF       -19.3286   -5.8082    9.6982 C.ar        1 SU3      -0.0689
     31 CBG       -19.9256   -5.4176   10.9149 C.ar        1 SU3      -0.0688
     32 CBH       -19.1291   -5.1515   12.0525 C.ar        1 SU3      -0.0606
     33 CBI       -17.7186   -5.2629   11.9947 C.ar        1 SU3      -0.0432
     34 CBJ       -16.8706   -5.0154   13.1944 C.3         1 SU3      -0.0194
     35 NBK        -7.5880   -6.5571    6.7300 N.am        1 SU3      -0.1552
     36 OBL        -8.5396   -6.7204    4.7177 O.2         1 SU3      -0.3404
     37 SBM        -7.0335   -4.9741    6.6190 S.o2        1 SU3       0.0645
     38 CBN        -6.1395   -4.6094    5.0893 C.3         1 SU3       0.1004
     39 OBO        -8.1640   -3.9208    7.0084 O.2         1 SU3      -0.1503
     40 OBP        -5.9349   -4.8765    7.7653 O.2         1 SU3      -0.1503
     41 CBQ        -6.6296   -3.4328    4.2335 C.3         1 SU3      -0.0268
     42 CBR        -5.3273   -3.3012    5.0368 C.3         1 SU3      -0.0268
     43 CBS       -16.2831   -6.3336   13.7739 C.3         1 SU3      -0.0433
     44 CBT       -15.3380   -6.1395   14.9906 C.3         1 SU3      -0.0507
     45 CBU       -13.9147   -5.6075   14.6578 C.3         1 SU3      -0.0453
     46 CBV       -12.9782   -5.2880   15.8811 C.3         1 SU3      -0.0072
     47 CBW       -11.5644   -4.8823   15.3527 C.3         1 SU3       0.0824
     48 CBX       -13.5354   -4.0725   16.6941 C.3         1 SU3      -0.0574
     49 CBY       -12.8182   -6.5145   16.8384 C.3         1 SU3      -0.0574
     50 CBZ        -7.1369   -5.7991   13.4501 C.3         1 SU3      -0.0558
     51 CCA        -6.5049   -7.9875   12.3646 C.3         1 SU3      -0.0558
     52 CD1       -11.1027   -6.7429    9.7694 C.3         1 SU3       0.0677
     53 OD2       -13.4683   -6.6331    9.1242 O.3         1 SU3      -0.2338
     54 H1        -10.8709   -9.9047    9.9768 H           1 SU3       0.0803
     55 H2        -12.9126   -9.0488    9.4786 H           1 SU3       0.0342
     56 H3        -12.3919   -9.1026    7.7884 H           1 SU3       0.0342
     57 H4        -11.9141   -6.7733    7.7577 H           1 SU3       0.0673
     58 H5         -9.0373   -5.9137   11.1799 H           1 SU3       0.0805
     59 H6         -9.6353   -7.6923   13.4309 H           1 SU3       0.1899
     60 H7         -6.2476  -10.6110    4.4403 H           1 SU3       0.0265
     61 H8         -6.8330   -9.0635    3.8137 H           1 SU3       0.0265
     62 H9         -4.4916   -8.9834    4.7263 H           1 SU3       0.0230
     63 H10        -5.1237   -9.3267    6.3575 H           1 SU3       0.0230
     64 H11        -5.5785   -7.8197    5.5125 H           1 SU3       0.0230
     65 H12        -5.4536   -5.7354   11.2576 H           1 SU3       0.0237
     66 H13        -6.9318   -4.8276   10.9206 H           1 SU3       0.0237
     67 H14        -6.6141   -6.3318   10.0562 H           1 SU3       0.0237
     68 H15       -10.0604   -7.7124    7.3501 H           1 SU3       0.1839
     69 H16        -7.7417  -10.6081    6.3528 H           1 SU3       0.0312
     70 H17        -9.1532   -9.1732    4.0018 H           1 SU3       0.0279
     71 H18        -9.8891  -10.2957    5.3040 H           1 SU3       0.0279
     72 H19       -17.3536   -6.6166    7.6939 H           1 SU3       0.0373
     73 H20       -15.0126   -5.7088   10.9787 H           1 SU3       0.0361
     74 H21       -19.9017   -6.0172    8.8787 H           1 SU3       0.0557
     75 H22       -20.9445   -5.3342   10.9751 H           1 SU3       0.0599
     76 H23       -19.5935   -4.8887   12.9219 H           1 SU3       0.0557
     77 H24       -17.4533   -4.5243   13.9778 H           1 SU3       0.0426
     78 H25       -16.0708   -4.3294   12.9151 H           1 SU3       0.0426
     79 H26        -7.4245   -7.0168    7.5696 H           1 SU3       0.2148
     80 H27        -5.6858   -5.4399    4.5443 H           1 SU3       0.0559
     81 H28        -7.4643   -2.8444    4.6141 H           1 SU3       0.0285
     82 H29        -6.5011   -3.5447    3.1546 H           1 SU3       0.0285
     83 H30        -4.4111   -3.3271    4.4383 H           1 SU3       0.0285
     84 H31        -5.3786   -2.6485    5.9123 H           1 SU3       0.0285
     85 H32       -15.7431   -6.8911   13.0037 H           1 SU3       0.0287
     86 H33       -17.1225   -6.9627   14.0944 H           1 SU3       0.0287
     87 H34       -15.2251   -7.1173   15.4638 H           1 SU3       0.0267
     88 H35       -15.8311   -5.4778   15.7030 H           1 SU3       0.0267
     89 H36       -14.0155   -4.7048   14.0550 H           1 SU3       0.0271
     90 H37       -13.4357   -6.3562   14.0245 H           1 SU3       0.0271
     91 H38       -11.6562   -3.9740   14.7533 H           1 SU3       0.0617
     92 H39       -10.9108   -4.6400   16.1933 H           1 SU3       0.0617
     93 H40       -14.4539   -4.3282   17.2255 H           1 SU3       0.0236
     94 H41       -13.7490   -3.2283   16.0352 H           1 SU3       0.0236
     95 H42       -12.8118   -3.7317   17.4378 H           1 SU3       0.0236
     96 H43       -12.4827   -7.3948   16.2894 H           1 SU3       0.0236
     97 H44       -13.7590   -6.7623   17.3308 H           1 SU3       0.0236
     98 H45       -12.0869   -6.3073   17.6230 H           1 SU3       0.0236
     99 H46        -7.5247   -6.3475   14.3113 H           1 SU3       0.0237
    100 H47        -7.6828   -4.8561   13.3683 H           1 SU3       0.0237
    101 H48        -6.0921   -5.5577   13.6621 H           1 SU3       0.0237
    102 H49        -6.3318   -8.5143   11.4228 H           1 SU3       0.0237
    103 H50        -7.0657   -8.6435   13.0353 H           1 SU3       0.0237
    104 H51        -5.5199   -7.8111   12.8121 H           1 SU3       0.0237
    105 H52       -10.4990   -5.9260    9.3632 H           1 SU3       0.0553
    106 H53       -11.5620   -6.4242   10.7086 H           1 SU3       0.0553
@<TRIPOS>BOND
     1     1     3   2
     2     1     4   1
     3    21     1  am
     4     4     2   1
     5     2     7  am
     6     2    52   1
     7     4     5   1
     8     5     6   1
     9     6    52   1
    10     6    53   1
    11     7     8   2
    12     7     9   1
    13     9    10   1
    14     9    13   1
    15    10    11  am
    16    11    12   1
    17    11    14   2
    18    12    47   1
    19    13    20   1
    20    13    50   1
    21    13    51   1
    22    15    16   2
    23    15    17  am
    24    53    15   1
    25    17    26   1
    26    17    29   1
    27    18    19   1
    28    24    18   1
    29    22    21   1
    30    22    23   1
    31    22    24   1
    32    22    25   1
    33    23    35  am
    34    23    36   2
    35    24    25   1
    36    26    27   2
    37    27    28  ar
    38    27    30  ar
    39    28    29   2
    40    28    33  ar
    41    30    31  ar
    42    31    32  ar
    43    32    33  ar
    44    33    34   1
    45    34    43   1
    46    35    37  am
    47    37    38   1
    48    37    39   2
    49    37    40   2
    50    38    41   1
    51    38    42   1
    52    41    42   1
    53    43    44   1
    54    44    45   1
    55    45    46   1
    56    46    47   1
    57    46    48   1
    58    46    49   1
    59     4    54   1
    60     5    55   1
    61     5    56   1
    62     6    57   1
    63     9    58   1
    64    10    59   1
    65    18    60   1
    66    18    61   1
    67    19    62   1
    68    19    63   1
    69    19    64   1
    70    20    65   1
    71    20    66   1
    72    20    67   1
    73    21    68   1
    74    24    69   1
    75    25    70   1
    76    25    71   1
    77    26    72   1
    78    29    73   1
    79    30    74   1
    80    31    75   1
    81    32    76   1
    82    34    77   1
    83    34    78   1
    84    35    79   1
    85    38    80   1
    86    41    81   1
    87    41    82   1
    88    42    83   1
    89    42    84   1
    90    43    85   1
    91    43    86   1
    92    44    87   1
    93    44    88   1
    94    45    89   1
    95    45    90   1
    96    47    91   1
    97    47    92   1
    98    48    93   1
    99    48    94   1
   100    48    95   1
   101    49    96   1
   102    49    97   1
   103    49    98   1
   104    50    99   1
   105    50   100   1
   106    50   101   1
   107    51   102   1
   108    51   103   1
   109    51   104   1
   110    52   105   1
   111    52   106   1
@<TRIPOS>SUBSTRUCTURE
     1  SU3      1

