@<TRIPOS>MOLECULE
3su5_ligand_008
   106   111
SMALL
GAST_HUCK
****
This file was generated by PARSER (from files_GN.cpp)

@<TRIPOS>ATOM
      1 C         -13.4853   -8.0731   14.4343 C.2         1 SU3       0.2013
      2 N         -15.2678   -9.3506   13.4321 N.am        1 SU3      -0.2469
      3 O         -13.6022   -7.2281   13.5519 O.2         1 SU3      -0.3947
      4 CA        -14.0639   -9.4047   14.2331 C.3         1 SU3       0.1363
      5 CB        -13.0884  -10.3695   13.5079 C.3         1 SU3       0.0206
      6 CG        -13.7732  -10.7490   12.1804 C.3         1 SU3       0.1158
      7 CAF       -16.3944   -8.7283   13.8377 C.2         1 SU3       0.2070
      8 OAG       -16.4629   -8.3922   15.0128 O.2         1 SU3      -0.3942
      9 CAH       -17.5542   -8.3843   12.9971 C.3         1 SU3       0.1378
     10 NAI       -18.6507   -9.1788   13.4769 N.am        1 SU3      -0.2407
     11 CAJ       -19.3499  -10.1028   12.7816 C.2         1 SU3       0.3218
     12 OAK       -20.3494  -10.7379   13.4441 O.3         1 SU3      -0.2633
     13 CAL       -17.9336   -6.8423   12.9128 C.3         1 SU3       0.0025
     14 OAM       -19.0901  -10.3753   11.4809 O.2         1 SU3      -0.3774
     15 CAO       -13.3101  -13.2319   11.9284 C.2         1 SU3       0.4317
     16 OAP       -11.9696  -13.0722   11.8146 O.2         1 SU3      -0.3166
     17 NAQ       -13.8839  -14.4609   11.8501 N.am        1 SU3      -0.2080
     18 CAR       -13.2760   -3.9220   16.1641 C.3         1 SU3      -0.0516
     19 CAS       -14.5441   -3.3325   15.5078 C.3         1 SU3      -0.0651
     20 CAT       -18.6500   -6.3011   14.1983 C.3         1 SU3      -0.0558
     21 NAV       -12.8093   -7.7767   15.5353 N.am        1 SU3      -0.2737
     22 CAX       -12.3019   -6.4706   15.8423 C.3         1 SU3       0.1374
     23 CAY       -11.1462   -6.0110   15.0730 C.2         1 SU3       0.2444
     24 CAZ       -13.3758   -5.4629   16.3341 C.3         1 SU3      -0.0066
     25 CBA       -12.3927   -6.0999   17.3320 C.3         1 SU3      -0.0152
     26 CBB       -13.2509  -15.6401   11.6529 C.2         1 SU3       0.0383
     27 CBC       -14.1972  -16.6611   11.6426 C.ar        1 SU3      -0.0374
     28 CBD       -15.4443  -16.0732   11.8447 C.ar        1 SU3      -0.0293
     29 CBE       -15.2101  -14.7049   11.9548 C.2         1 SU3       0.0366
     30 CBF       -14.0686  -18.0498   11.4778 C.ar        1 SU3      -0.0689
     31 CBG       -15.2321  -18.8430   11.5254 C.ar        1 SU3      -0.0688
     32 CBH       -16.4960  -18.2492   11.7361 C.ar        1 SU3      -0.0606
     33 CBI       -16.6284  -16.8455   11.9046 C.ar        1 SU3      -0.0432
     34 CBJ       -17.9565  -16.2191   12.1497 C.3         1 SU3      -0.0194
     35 NBK       -11.1197   -6.2465   13.7724 N.am        1 SU3      -0.1552
     36 OBL       -10.2023   -5.4716   15.6375 O.2         1 SU3      -0.3404
     37 SBM        -9.8187   -6.0457   12.7124 S.o2        1 SU3       0.0645
     38 CBN        -9.5675   -7.6015   11.8283 C.3         1 SU3       0.1004
     39 OBO       -10.1966   -4.8523   11.7279 O.2         1 SU3      -0.1503
     40 OBP        -8.4920   -5.6271   13.4861 O.2         1 SU3      -0.1503
     41 CBQ        -9.0570   -7.5056   10.3831 C.3         1 SU3      -0.0268
     42 CBR        -8.1381   -8.0445   11.4867 C.3         1 SU3      -0.0268
     43 CBS       -18.1253  -15.7553   13.6246 C.3         1 SU3      -0.0433
     44 CBT       -19.5210  -15.1626   13.9633 C.3         1 SU3      -0.0507
     45 CBU       -19.7988  -13.7525   13.3584 C.3         1 SU3      -0.0453
     46 CBV       -21.1875  -13.0847   13.6887 C.3         1 SU3      -0.0072
     47 CBW       -21.2823  -11.7073   12.9436 C.3         1 SU3       0.0824
     48 CBX       -22.3696  -13.9756   13.1827 C.3         1 SU3      -0.0574
     49 CBY       -21.3538  -12.8433   15.2248 C.3         1 SU3      -0.0574
     50 CBZ       -16.6601   -5.9676   12.6617 C.3         1 SU3      -0.0558
     51 CCA       -18.9031   -6.6158   11.7012 C.3         1 SU3      -0.0558
     52 CD1       -15.0811   -9.9304   12.1392 C.3         1 SU3       0.0677
     53 OD2       -14.1068  -12.1428   12.0933 O.3         1 SU3      -0.2338
     54 H1        -14.3190   -9.8381   15.2081 H           1 SU3       0.0803
     55 H2        -12.9088  -11.2597   14.1172 H           1 SU3       0.0342
     56 H3        -12.1197   -9.9064   13.3087 H           1 SU3       0.0342
     57 H4        -13.1414  -10.4816   11.3262 H           1 SU3       0.0673
     58 H5        -17.3255   -8.6800   11.9729 H           1 SU3       0.0805
     59 H6        -18.9177   -9.0391   14.4008 H           1 SU3       0.1899
     60 H7        -13.1562   -3.4592   17.1466 H           1 SU3       0.0265
     61 H8        -12.4118   -3.6544   15.5545 H           1 SU3       0.0265
     62 H9        -14.4285   -2.2548   15.3711 H           1 SU3       0.0230
     63 H10       -15.4177   -3.5048   16.1444 H           1 SU3       0.0230
     64 H11       -14.7213   -3.7904   14.5323 H           1 SU3       0.0230
     65 H12       -18.8894   -5.2395   14.0914 H           1 SU3       0.0237
     66 H13       -18.0185   -6.4035   15.0796 H           1 SU3       0.0237
     67 H14       -19.5847   -6.8341   14.3821 H           1 SU3       0.0237
     68 H15       -12.7043   -8.4741   16.2013 H           1 SU3       0.1839
     69 H16       -14.3835   -5.8694   16.4657 H           1 SU3       0.0312
     70 H17       -11.6347   -5.4306   17.7378 H           1 SU3       0.0279
     71 H18       -12.8442   -6.8372   17.9991 H           1 SU3       0.0279
     72 H19       -12.2452  -15.7749   11.5290 H           1 SU3       0.0373
     73 H20       -15.9381  -14.0002   12.0968 H           1 SU3       0.0361
     74 H21       -13.1523  -18.4769   11.3289 H           1 SU3       0.0557
     75 H22       -15.1604  -19.8568   11.4121 H           1 SU3       0.0599
     76 H23       -17.3211  -18.8522   11.7772 H           1 SU3       0.0557
     77 H24       -18.7568  -16.9273   11.9177 H           1 SU3       0.0426
     78 H25       -18.0737  -15.3737   11.4689 H           1 SU3       0.0426
     79 H26       -11.8992   -6.6678   13.3838 H           1 SU3       0.2148
     80 H27       -10.2773   -8.4081   12.0076 H           1 SU3       0.0559
     81 H28        -8.7834   -6.5205   10.0013 H           1 SU3       0.0285
     82 H29        -9.4447   -8.2552    9.6888 H           1 SU3       0.0285
     83 H30        -7.9605   -9.1234   11.4550 H           1 SU3       0.0285
     84 H31        -7.3200   -7.3803   11.7719 H           1 SU3       0.0285
     85 H32       -17.3602  -15.0188   13.8796 H           1 SU3       0.0287
     86 H33       -17.9671  -16.6242   14.2709 H           1 SU3       0.0287
     87 H34       -19.5870  -15.0936   15.0513 H           1 SU3       0.0267
     88 H35       -20.2823  -15.8700   13.6303 H           1 SU3       0.0267
     89 H36       -19.7079  -13.8304   12.2724 H           1 SU3       0.0271
     90 H37       -19.0002  -13.0860   13.6964 H           1 SU3       0.0271
     91 H38       -21.1497  -11.8560   11.8686 H           1 SU3       0.0617
     92 H39       -22.2751  -11.2725   13.0844 H           1 SU3       0.0617
     93 H40       -22.4202  -14.9179   13.7303 H           1 SU3       0.0236
     94 H41       -22.2543  -14.2023   12.1201 H           1 SU3       0.0236
     95 H42       -23.3270  -13.4678   13.3201 H           1 SU3       0.0236
     96 H43       -20.5015  -12.2909   15.6264 H           1 SU3       0.0236
     97 H44       -21.4320  -13.7866   15.7674 H           1 SU3       0.0236
     98 H45       -22.2594  -12.2679   15.4306 H           1 SU3       0.0236
     99 H46       -16.0855   -6.3524   11.8156 H           1 SU3       0.0237
    100 H47       -16.0195   -5.9643   13.5431 H           1 SU3       0.0237
    101 H48       -16.9239   -4.9291   12.4500 H           1 SU3       0.0237
    102 H49       -19.8118   -7.2100   11.8120 H           1 SU3       0.0237
    103 H50       -18.4241   -6.8998   10.7614 H           1 SU3       0.0237
    104 H51       -19.1966   -5.5656   11.6207 H           1 SU3       0.0237
    105 H52       -15.0064   -9.1384   11.3886 H           1 SU3       0.0553
    106 H53       -15.9260  -10.5791   11.8873 H           1 SU3       0.0553
@<TRIPOS>BOND
     1     1     3   2
     2     1     4   1
     3    21     1  am
     4     4     2   1
     5     2     7  am
     6     2    52   1
     7     4     5   1
     8     5     6   1
     9     6    52   1
    10     6    53   1
    11     7     8   2
    12     7     9   1
    13     9    10   1
    14     9    13   1
    15    10    11  am
    16    11    12   1
    17    11    14   2
    18    12    47   1
    19    13    20   1
    20    13    50   1
    21    13    51   1
    22    15    16   2
    23    15    17  am
    24    53    15   1
    25    17    26   1
    26    17    29   1
    27    18    19   1
    28    24    18   1
    29    22    21   1
    30    22    23   1
    31    22    24   1
    32    22    25   1
    33    23    35  am
    34    23    36   2
    35    24    25   1
    36    26    27   2
    37    27    28  ar
    38    27    30  ar
    39    28    29   2
    40    28    33  ar
    41    30    31  ar
    42    31    32  ar
    43    32    33  ar
    44    33    34   1
    45    34    43   1
    46    35    37  am
    47    37    38   1
    48    37    39   2
    49    37    40   2
    50    38    41   1
    51    38    42   1
    52    41    42   1
    53    43    44   1
    54    44    45   1
    55    45    46   1
    56    46    47   1
    57    46    48   1
    58    46    49   1
    59     4    54   1
    60     5    55   1
    61     5    56   1
    62     6    57   1
    63     9    58   1
    64    10    59   1
    65    18    60   1
    66    18    61   1
    67    19    62   1
    68    19    63   1
    69    19    64   1
    70    20    65   1
    71    20    66   1
    72    20    67   1
    73    21    68   1
    74    24    69   1
    75    25    70   1
    76    25    71   1
    77    26    72   1
    78    29    73   1
    79    30    74   1
    80    31    75   1
    81    32    76   1
    82    34    77   1
    83    34    78   1
    84    35    79   1
    85    38    80   1
    86    41    81   1
    87    41    82   1
    88    42    83   1
    89    42    84   1
    90    43    85   1
    91    43    86   1
    92    44    87   1
    93    44    88   1
    94    45    89   1
    95    45    90   1
    96    47    91   1
    97    47    92   1
    98    48    93   1
    99    48    94   1
   100    48    95   1
   101    49    96   1
   102    49    97   1
   103    49    98   1
   104    50    99   1
   105    50   100   1
   106    50   101   1
   107    51   102   1
   108    51   103   1
   109    51   104   1
   110    52   105   1
   111    52   106   1
@<TRIPOS>SUBSTRUCTURE
     1  SU3      1

