@<TRIPOS>MOLECULE
3su5_ligand_019
   106   111
SMALL
GAST_HUCK
****
This file was generated by PARSER (from files_GN.cpp)

@<TRIPOS>ATOM
      1 C         -10.7776   -6.7421    8.6568 C.2         1 SU3       0.2013
      2 N          -8.7895   -5.3133    8.9625 N.am        1 SU3      -0.2469
      3 O         -11.9955   -6.6254    8.6224 O.2         1 SU3      -0.3947
      4 CA         -9.9765   -5.6127    8.1894 C.3         1 SU3       0.1363
      5 CB         -9.4753   -5.8879    6.7531 C.3         1 SU3       0.0206
      6 CG         -8.1397   -5.1382    6.6773 C.3         1 SU3       0.1158
      7 CAF        -8.7889   -5.0981   10.2892 C.2         1 SU3       0.2070
      8 OAG        -9.8722   -5.0283   10.8594 O.2         1 SU3      -0.3942
      9 CAH        -7.5960   -4.9387   11.1444 C.3         1 SU3       0.1378
     10 NAI        -7.6803   -3.5861   11.6123 N.am        1 SU3      -0.2407
     11 CAJ        -6.7863   -2.5877   11.4264 C.2         1 SU3       0.3218
     12 OAK        -7.0678   -1.3990   12.0183 O.3         1 SU3      -0.2633
     13 CAL        -7.3785   -6.0145   12.3163 C.3         1 SU3       0.0025
     14 OAM        -5.6357   -2.7886   10.7395 O.2         1 SU3      -0.3774
     15 CAO        -8.6125   -3.2937    5.0429 C.2         1 SU3       0.4317
     16 OAP        -8.8709   -4.1703    4.0400 O.2         1 SU3      -0.3166
     17 NAQ        -8.6310   -1.9600    4.8065 N.am        1 SU3      -0.2080
     18 CAR       -11.2127  -11.6006    8.4271 C.3         1 SU3      -0.0516
     19 CAS       -10.3385  -12.7941    7.9900 C.3         1 SU3      -0.0651
     20 CAT        -5.9666   -6.6896   12.1707 C.3         1 SU3      -0.0558
     21 NAV       -10.1819   -7.8610    9.0559 N.am        1 SU3      -0.2737
     22 CAX       -10.8070   -9.0949    9.4497 C.3         1 SU3       0.1374
     23 CAY       -12.0910   -9.0795   10.1342 C.2         1 SU3       0.2444
     24 CAZ       -10.3491  -10.3306    8.6386 C.3         1 SU3      -0.0066
     25 CBA        -9.7995  -10.1002   10.0531 C.3         1 SU3      -0.0152
     26 CBB        -8.9348   -1.3644    3.6300 C.2         1 SU3       0.0383
     27 CBC        -8.7999    0.0113    3.7746 C.ar        1 SU3      -0.0374
     28 CBD        -8.4006    0.2537    5.0865 C.ar        1 SU3      -0.0293
     29 CBE        -8.3125   -0.9930    5.7007 C.2         1 SU3       0.0366
     30 CBF        -8.9806    1.0597    2.8583 C.ar        1 SU3      -0.0689
     31 CBG        -8.7437    2.3777    3.2927 C.ar        1 SU3      -0.0688
     32 CBH        -8.3291    2.6300    4.6198 C.ar        1 SU3      -0.0606
     33 CBI        -8.1492    1.5716    5.5460 C.ar        1 SU3      -0.0432
     34 CBJ        -7.7003    1.8376    6.9376 C.3         1 SU3      -0.0194
     35 NBK       -12.1213   -8.6618   11.3861 N.am        1 SU3      -0.1552
     36 OBL       -13.1027   -9.2397    9.4694 O.2         1 SU3      -0.3404
     37 SBM       -13.5271   -8.2769   12.2379 S.o2        1 SU3       0.0645
     38 CBN       -13.0840   -7.5453   13.8302 C.3         1 SU3       0.1004
     39 OBO       -14.3072   -7.1473   11.4318 O.2         1 SU3      -0.1503
     40 OBP       -14.4345   -9.5697   12.4241 O.2         1 SU3      -0.1503
     41 CBQ       -13.9669   -7.8503   15.0492 C.3         1 SU3      -0.0268
     42 CBR       -12.5761   -8.4863   14.9310 C.3         1 SU3      -0.0268
     43 CBS        -8.8618    1.7149    7.9615 C.3         1 SU3      -0.0433
     44 CBT        -8.4499    1.9832    9.4349 C.3         1 SU3      -0.0507
     45 CBU        -7.5456    0.8812   10.0683 C.3         1 SU3      -0.0453
     46 CBV        -7.1213    1.0648   11.5722 C.3         1 SU3      -0.0072
     47 CBW        -6.2947   -0.1909   12.0248 C.3         1 SU3       0.0824
     48 CBX        -6.2094    2.3232   11.7421 C.3         1 SU3      -0.0574
     49 CBY        -8.3705    1.2125   12.4990 C.3         1 SU3      -0.0574
     50 CBZ        -7.4318   -5.3754   13.7490 C.3         1 SU3      -0.0558
     51 CCA        -8.4251   -7.1826   12.3045 C.3         1 SU3      -0.0558
     52 CD1        -7.6303   -5.2050    8.1278 C.3         1 SU3       0.0677
     53 OD2        -8.2881   -3.7650    6.2792 O.3         1 SU3      -0.2338
     54 H1        -10.5900   -4.7024    8.1761 H           1 SU3       0.0803
     55 H2        -10.1925   -5.5413    6.0073 H           1 SU3       0.0342
     56 H3         -9.2828   -6.9528    6.5833 H           1 SU3       0.0342
     57 H4         -7.4360   -5.6377    6.0046 H           1 SU3       0.0673
     58 H5         -6.7213   -5.0031   10.4990 H           1 SU3       0.0805
     59 H6         -8.4591   -3.3644   12.1461 H           1 SU3       0.1899
     60 H7        -11.7557  -11.8698    9.3355 H           1 SU3       0.0265
     61 H8        -11.9441  -11.3916    7.6447 H           1 SU3       0.0265
     62 H9        -10.9534  -13.6889    7.8756 H           1 SU3       0.0230
     63 H10        -9.5648  -12.9964    8.7351 H           1 SU3       0.0230
     64 H11        -9.8555  -12.5820    7.0326 H           1 SU3       0.0230
     65 H12        -5.7463   -7.3584   13.0073 H           1 SU3       0.0237
     66 H13        -5.1777   -5.9356   12.1244 H           1 SU3       0.0237
     67 H14        -5.9196   -7.2762   11.2505 H           1 SU3       0.0237
     68 H15        -9.2069   -7.8543    9.0519 H           1 SU3       0.1839
     69 H16        -9.6235  -10.1024    7.8507 H           1 SU3       0.0312
     70 H17       -10.1737  -10.7729   10.8282 H           1 SU3       0.0279
     71 H18        -8.7456   -9.8158   10.0832 H           1 SU3       0.0279
     72 H19        -9.2057   -1.8352    2.7634 H           1 SU3       0.0373
     73 H20        -8.0263   -1.1504    6.6706 H           1 SU3       0.0361
     74 H21        -9.2733    0.8702    1.8972 H           1 SU3       0.0557
     75 H22        -8.8674    3.1563    2.6425 H           1 SU3       0.0599
     76 H23        -8.1617    3.5971    4.9053 H           1 SU3       0.0557
     77 H24        -7.2790    2.8432    7.0154 H           1 SU3       0.0426
     78 H25        -6.8983    1.1388    7.1800 H           1 SU3       0.0426
     79 H26       -11.2761   -8.5335   11.8465 H           1 SU3       0.2148
     80 H27       -12.6105   -6.5602   13.8297 H           1 SU3       0.0559
     81 H28       -14.8039   -8.5375   14.9092 H           1 SU3       0.0285
     82 H29       -14.0531   -7.0564   15.7935 H           1 SU3       0.0285
     83 H30       -11.8244   -8.0793   15.6092 H           1 SU3       0.0285
     84 H31       -12.5715   -9.5565   14.7136 H           1 SU3       0.0285
     85 H32        -9.3189    0.7258    7.8958 H           1 SU3       0.0287
     86 H33        -9.6310    2.4447    7.6895 H           1 SU3       0.0287
     87 H34        -9.3736    2.0549   10.0130 H           1 SU3       0.0267
     88 H35        -7.9513    2.9526    9.4862 H           1 SU3       0.0267
     89 H36        -6.6362    0.7981    9.4710 H           1 SU3       0.0271
     90 H37        -8.0770   -0.0672    9.9723 H           1 SU3       0.0271
     91 H38        -5.4050   -0.2983   11.3983 H           1 SU3       0.0617
     92 H39        -5.9507   -0.0566   13.0518 H           1 SU3       0.0617
     93 H40        -6.7506    3.2418   11.5126 H           1 SU3       0.0236
     94 H41        -5.3415    2.2646   11.0812 H           1 SU3       0.0236
     95 H42        -5.8473    2.4038   12.7697 H           1 SU3       0.0236
     96 H43        -9.0766    0.3969   12.3262 H           1 SU3       0.0236
     97 H44        -8.8906    2.1547   12.3188 H           1 SU3       0.0236
     98 H45        -8.0746    1.2002   13.5499 H           1 SU3       0.0236
     99 H46        -8.3770   -4.8545   13.8970 H           1 SU3       0.0237
    100 H47        -6.6251   -4.6544   13.8853 H           1 SU3       0.0237
    101 H48        -7.3421   -6.1262   14.5371 H           1 SU3       0.0237
    102 H49        -8.4736   -7.6267   11.3085 H           1 SU3       0.0237
    103 H50        -9.4208   -6.8219   12.5741 H           1 SU3       0.0237
    104 H51        -8.1739   -7.9765   13.0099 H           1 SU3       0.0237
    105 H52        -6.9897   -6.0806    8.2700 H           1 SU3       0.0553
    106 H53        -7.0583   -4.2984    8.3482 H           1 SU3       0.0553
@<TRIPOS>BOND
     1     1     3   2
     2     1     4   1
     3    21     1  am
     4     4     2   1
     5     2     7  am
     6     2    52   1
     7     4     5   1
     8     5     6   1
     9     6    52   1
    10     6    53   1
    11     7     8   2
    12     7     9   1
    13     9    10   1
    14     9    13   1
    15    10    11  am
    16    11    12   1
    17    11    14   2
    18    12    47   1
    19    13    20   1
    20    13    50   1
    21    13    51   1
    22    15    16   2
    23    15    17  am
    24    53    15   1
    25    17    26   1
    26    17    29   1
    27    18    19   1
    28    24    18   1
    29    22    21   1
    30    22    23   1
    31    22    24   1
    32    22    25   1
    33    23    35  am
    34    23    36   2
    35    24    25   1
    36    26    27   2
    37    27    28  ar
    38    27    30  ar
    39    28    29   2
    40    28    33  ar
    41    30    31  ar
    42    31    32  ar
    43    32    33  ar
    44    33    34   1
    45    34    43   1
    46    35    37  am
    47    37    38   1
    48    37    39   2
    49    37    40   2
    50    38    41   1
    51    38    42   1
    52    41    42   1
    53    43    44   1
    54    44    45   1
    55    45    46   1
    56    46    47   1
    57    46    48   1
    58    46    49   1
    59     4    54   1
    60     5    55   1
    61     5    56   1
    62     6    57   1
    63     9    58   1
    64    10    59   1
    65    18    60   1
    66    18    61   1
    67    19    62   1
    68    19    63   1
    69    19    64   1
    70    20    65   1
    71    20    66   1
    72    20    67   1
    73    21    68   1
    74    24    69   1
    75    25    70   1
    76    25    71   1
    77    26    72   1
    78    29    73   1
    79    30    74   1
    80    31    75   1
    81    32    76   1
    82    34    77   1
    83    34    78   1
    84    35    79   1
    85    38    80   1
    86    41    81   1
    87    41    82   1
    88    42    83   1
    89    42    84   1
    90    43    85   1
    91    43    86   1
    92    44    87   1
    93    44    88   1
    94    45    89   1
    95    45    90   1
    96    47    91   1
    97    47    92   1
    98    48    93   1
    99    48    94   1
   100    48    95   1
   101    49    96   1
   102    49    97   1
   103    49    98   1
   104    50    99   1
   105    50   100   1
   106    50   101   1
   107    51   102   1
   108    51   103   1
   109    51   104   1
   110    52   105   1
   111    52   106   1
@<TRIPOS>SUBSTRUCTURE
     1  SU3      1

