@<TRIPOS>MOLECULE
3su5_ligand_086
   106   111
SMALL
GAST_HUCK
****
This file was generated by PARSER (from files_GN.cpp)

@<TRIPOS>ATOM
      1 C         -17.1452   -5.2900   12.7262 C.2         1 SU3       0.2013
      2 N         -18.8867   -6.8218   11.9681 N.am        1 SU3      -0.2469
      3 O         -17.1897   -4.2106   13.3002 O.2         1 SU3      -0.3947
      4 CA        -18.1182   -6.3287   13.0894 C.3         1 SU3       0.1363
      5 CB        -17.4276   -7.5652   13.7224 C.3         1 SU3       0.0206
      6 CG        -18.1550   -8.7793   13.1185 C.3         1 SU3       0.1158
      7 CAF       -19.7062   -6.0510   11.2277 C.2         1 SU3       0.2070
      8 OAG       -19.9257   -4.9115   11.6274 O.2         1 SU3      -0.3942
      9 CAH       -20.3906   -6.4482    9.9819 C.3         1 SU3       0.1378
     10 NAI       -21.8075   -6.3559   10.2151 N.am        1 SU3      -0.2407
     11 CAJ       -22.7080   -7.3568   10.1203 C.2         1 SU3       0.3218
     12 OAK       -24.0134   -7.0166   10.2728 O.3         1 SU3      -0.2633
     13 CAL       -19.9752   -5.6520    8.6755 C.3         1 SU3       0.0025
     14 OAM       -22.3490   -8.6314    9.8269 O.2         1 SU3      -0.3774
     15 CAO       -19.1333   -9.8954   15.1522 C.2         1 SU3       0.4317
     16 OAP       -17.9103  -10.1033   15.6993 O.2         1 SU3      -0.3166
     17 NAQ       -20.2494  -10.3519   15.7757 N.am        1 SU3      -0.2080
     18 CAR       -12.9364   -4.9231    9.8079 C.3         1 SU3      -0.0516
     19 CAS       -12.6850   -4.6913    8.3022 C.3         1 SU3      -0.0651
     20 CAT       -20.3703   -4.1356    8.7256 C.3         1 SU3      -0.0558
     21 NAV       -16.2217   -5.5330   11.8077 N.am        1 SU3      -0.2737
     22 CAX       -15.1213   -4.6766   11.4550 C.3         1 SU3       0.1374
     23 CAY       -14.2413   -4.2180   12.5175 C.2         1 SU3       0.2444
     24 CAZ       -14.4466   -5.1033   10.1190 C.3         1 SU3      -0.0066
     25 CBA       -15.2763   -3.8149   10.1825 C.3         1 SU3      -0.0152
     26 CBB       -20.2858  -11.0137   16.9529 C.2         1 SU3       0.0383
     27 CBC       -21.6021  -11.3699   17.2290 C.ar        1 SU3      -0.0374
     28 CBD       -22.3894  -10.8922   16.1835 C.ar        1 SU3      -0.0293
     29 CBE       -21.5157  -10.2572   15.3022 C.2         1 SU3       0.0366
     30 CBF       -22.1598  -12.0862   18.2959 C.ar        1 SU3      -0.0689
     31 CBG       -23.5508  -12.3234   18.2933 C.ar        1 SU3      -0.0688
     32 CBH       -24.3527  -11.8478   17.2344 C.ar        1 SU3      -0.0606
     33 CBI       -23.7871  -11.1177   16.1566 C.ar        1 SU3      -0.0432
     34 CBJ       -24.6383  -10.6231   15.0449 C.3         1 SU3      -0.0194
     35 NBK       -13.7316   -5.1057   13.3551 N.am        1 SU3      -0.1552
     36 OBL       -14.0739   -3.0157   12.6737 O.2         1 SU3      -0.3404
     37 SBM       -12.7253   -4.7279   14.6581 S.o2        1 SU3       0.0645
     38 CBN       -12.3712   -6.0966   15.7869 C.3         1 SU3       0.1004
     39 OBO       -11.3296   -4.2341   14.0801 O.2         1 SU3      -0.1503
     40 OBP       -13.3613   -3.5561   15.5290 O.2         1 SU3      -0.1503
     41 CBQ       -13.5681   -6.7687   16.4818 C.3         1 SU3      -0.0268
     42 CBR       -12.7798   -7.5264   15.4012 C.3         1 SU3      -0.0268
     43 CBS       -24.9274   -9.1014   15.1653 C.3         1 SU3      -0.0433
     44 CBT       -25.8596   -8.5443   14.0550 C.3         1 SU3      -0.0507
     45 CBU       -25.1872   -8.4445   12.6530 C.3         1 SU3      -0.0453
     46 CBV       -26.0396   -7.8325   11.4802 C.3         1 SU3      -0.0072
     47 CBW       -25.1788   -7.8486   10.1694 C.3         1 SU3       0.0824
     48 CBX       -27.3247   -8.6836   11.2179 C.3         1 SU3      -0.0574
     49 CBY       -26.4588   -6.3606   11.7967 C.3         1 SU3      -0.0574
     50 CBZ       -18.4313   -5.7580    8.4625 C.3         1 SU3      -0.0558
     51 CCA       -20.6690   -6.2828    7.4165 C.3         1 SU3      -0.0558
     52 CD1       -18.7249   -8.2357   11.7941 C.3         1 SU3       0.0677
     53 OD2       -19.2252   -9.2648   13.9488 O.3         1 SU3      -0.2338
     54 H1        -18.8262   -5.9374   13.8331 H           1 SU3       0.0803
     55 H2        -17.5070   -7.5394   14.8127 H           1 SU3       0.0342
     56 H3        -16.3663   -7.6316   13.4676 H           1 SU3       0.0342
     57 H4        -17.4613   -9.6041   12.9199 H           1 SU3       0.0673
     58 H5        -20.1380   -7.4883    9.7646 H           1 SU3       0.0805
     59 H6        -22.1585   -5.4745   10.4219 H           1 SU3       0.1899
     60 H7        -12.5147   -4.0794   10.3578 H           1 SU3       0.0265
     61 H8        -12.4154   -5.8289   10.1259 H           1 SU3       0.0265
     62 H9        -11.6143   -4.5834    8.1198 H           1 SU3       0.0230
     63 H10       -13.1858   -3.7808    7.9673 H           1 SU3       0.0230
     64 H11       -13.0583   -5.5358    7.7192 H           1 SU3       0.0230
     65 H12       -20.1275   -3.6401    7.7850 H           1 SU3       0.0237
     66 H13       -19.8361   -3.6081    9.5125 H           1 SU3       0.0237
     67 H14       -21.4403   -4.0168    8.8989 H           1 SU3       0.0237
     68 H15       -16.2523   -6.4026   11.3763 H           1 SU3       0.1839
     69 H16       -14.9515   -5.8994    9.5611 H           1 SU3       0.0312
     70 H17       -14.7153   -2.8801   10.1447 H           1 SU3       0.0279
     71 H18       -16.2357   -3.8481    9.6721 H           1 SU3       0.0279
     72 H19       -19.4849  -11.2480   17.5455 H           1 SU3       0.0373
     73 H20       -21.7922   -9.8186   14.4221 H           1 SU3       0.0361
     74 H21       -21.5701  -12.4379   19.0520 H           1 SU3       0.0557
     75 H22       -23.9811  -12.8466   19.0581 H           1 SU3       0.0599
     76 H23       -25.3581  -12.0373   17.2570 H           1 SU3       0.0557
     77 H24       -25.5936  -11.1555   15.0351 H           1 SU3       0.0426
     78 H25       -24.1426  -10.8484   14.0989 H           1 SU3       0.0426
     79 H26       -13.9460   -6.0417   13.2178 H           1 SU3       0.2148
     80 H27       -11.4887   -6.0143   16.4255 H           1 SU3       0.0559
     81 H28       -14.5621   -6.4277   16.1879 H           1 SU3       0.0285
     82 H29       -13.3952   -7.0988   17.5072 H           1 SU3       0.0285
     83 H30       -12.1193   -8.3126   15.7617 H           1 SU3       0.0285
     84 H31       -13.3077   -7.6645   14.4601 H           1 SU3       0.0285
     85 H32       -23.9898   -8.5394   15.1621 H           1 SU3       0.0287
     86 H33       -25.4109   -8.9225   16.1308 H           1 SU3       0.0287
     87 H34       -26.1788   -7.5481   14.3680 H           1 SU3       0.0267
     88 H35       -26.7505   -9.1728   14.0001 H           1 SU3       0.0267
     89 H36       -24.8747   -9.4479   12.3551 H           1 SU3       0.0271
     90 H37       -24.2769   -7.8495   12.7707 H           1 SU3       0.0271
     91 H38       -24.9023   -8.8762    9.9173 H           1 SU3       0.0617
     92 H39       -25.7643   -7.4607    9.3323 H           1 SU3       0.0617
     93 H40       -28.0095   -8.6407   12.0659 H           1 SU3       0.0236
     94 H41       -27.0655   -9.7296   11.0401 H           1 SU3       0.0236
     95 H42       -27.8636   -8.3135   10.3425 H           1 SU3       0.0236
     96 H43       -25.5863   -5.7646   12.0726 H           1 SU3       0.0236
     97 H44       -27.1742   -6.3157   12.6200 H           1 SU3       0.0236
     98 H45       -26.9295   -5.8980   10.9263 H           1 SU3       0.0236
     99 H46       -18.1208   -6.7953    8.3214 H           1 SU3       0.0237
    100 H47       -17.9142   -5.3656    9.3329 H           1 SU3       0.0237
    101 H48       -18.1134   -5.1851    7.5907 H           1 SU3       0.0237
    102 H49       -21.7573   -6.1904    7.4763 H           1 SU3       0.0237
    103 H50       -20.4276   -7.3464    7.3197 H           1 SU3       0.0237
    104 H51       -20.3448   -5.7841    6.4984 H           1 SU3       0.0237
    105 H52       -18.0315   -8.4210   10.9693 H           1 SU3       0.0553
    106 H53       -19.6712   -8.7417   11.5841 H           1 SU3       0.0553
@<TRIPOS>BOND
     1     1     3   2
     2     1     4   1
     3    21     1  am
     4     4     2   1
     5     2     7  am
     6     2    52   1
     7     4     5   1
     8     5     6   1
     9     6    52   1
    10     6    53   1
    11     7     8   2
    12     7     9   1
    13     9    10   1
    14     9    13   1
    15    10    11  am
    16    11    12   1
    17    11    14   2
    18    12    47   1
    19    13    20   1
    20    13    50   1
    21    13    51   1
    22    15    16   2
    23    15    17  am
    24    53    15   1
    25    17    26   1
    26    17    29   1
    27    18    19   1
    28    24    18   1
    29    22    21   1
    30    22    23   1
    31    22    24   1
    32    22    25   1
    33    23    35  am
    34    23    36   2
    35    24    25   1
    36    26    27   2
    37    27    28  ar
    38    27    30  ar
    39    28    29   2
    40    28    33  ar
    41    30    31  ar
    42    31    32  ar
    43    32    33  ar
    44    33    34   1
    45    34    43   1
    46    35    37  am
    47    37    38   1
    48    37    39   2
    49    37    40   2
    50    38    41   1
    51    38    42   1
    52    41    42   1
    53    43    44   1
    54    44    45   1
    55    45    46   1
    56    46    47   1
    57    46    48   1
    58    46    49   1
    59     4    54   1
    60     5    55   1
    61     5    56   1
    62     6    57   1
    63     9    58   1
    64    10    59   1
    65    18    60   1
    66    18    61   1
    67    19    62   1
    68    19    63   1
    69    19    64   1
    70    20    65   1
    71    20    66   1
    72    20    67   1
    73    21    68   1
    74    24    69   1
    75    25    70   1
    76    25    71   1
    77    26    72   1
    78    29    73   1
    79    30    74   1
    80    31    75   1
    81    32    76   1
    82    34    77   1
    83    34    78   1
    84    35    79   1
    85    38    80   1
    86    41    81   1
    87    41    82   1
    88    42    83   1
    89    42    84   1
    90    43    85   1
    91    43    86   1
    92    44    87   1
    93    44    88   1
    94    45    89   1
    95    45    90   1
    96    47    91   1
    97    47    92   1
    98    48    93   1
    99    48    94   1
   100    48    95   1
   101    49    96   1
   102    49    97   1
   103    49    98   1
   104    50    99   1
   105    50   100   1
   106    50   101   1
   107    51   102   1
   108    51   103   1
   109    51   104   1
   110    52   105   1
   111    52   106   1
@<TRIPOS>SUBSTRUCTURE
     1  SU3      1

