@<TRIPOS>MOLECULE
3su5_ligand_018
   106   111
SMALL
GAST_HUCK
****
This file was generated by PARSER (from files_GN.cpp)

@<TRIPOS>ATOM
      1 C         -11.9188   -6.4070   10.0683 C.2         1 SU3       0.2013
      2 N          -9.7693   -5.3406    9.5896 N.am        1 SU3      -0.2469
      3 O         -12.5150   -7.3112    9.4880 O.2         1 SU3      -0.3947
      4 CA        -11.1958   -5.3597    9.3233 C.3         1 SU3       0.1363
      5 CB        -11.3322   -5.4438    7.7702 C.3         1 SU3       0.0206
      6 CG         -9.9192   -5.2228    7.1998 C.3         1 SU3       0.1158
      7 CAF        -9.2211   -5.1069   10.8033 C.2         1 SU3       0.2070
      8 OAG        -9.9517   -4.6749   11.6884 O.2         1 SU3      -0.3942
      9 CAH        -7.8010   -5.2527   11.1647 C.3         1 SU3       0.1378
     10 NAI        -7.3399   -3.9401   11.5176 N.am        1 SU3      -0.2407
     11 CAJ        -6.3850   -3.2056   10.9103 C.2         1 SU3       0.3218
     12 OAK        -6.0951   -2.0271   11.5155 O.3         1 SU3      -0.2633
     13 CAL        -7.4874   -6.3092   12.3113 C.3         1 SU3       0.0025
     14 OAM        -5.7234   -3.6298    9.8072 O.2         1 SU3      -0.3774
     15 CAO       -10.2371   -3.3400    5.5742 C.2         1 SU3       0.4317
     16 OAP       -11.0792   -4.0838    4.8130 O.2         1 SU3      -0.3166
     17 NAQ        -9.9135   -2.0778    5.1958 N.am        1 SU3      -0.2080
     18 CAR       -12.8834   -9.9025   12.8966 C.3         1 SU3      -0.0516
     19 CAS       -13.6243   -9.8878   14.2554 C.3         1 SU3      -0.0651
     20 CAT        -7.7668   -5.7709   13.7598 C.3         1 SU3      -0.0558
     21 NAV       -11.9492   -6.3611   11.3959 N.am        1 SU3      -0.2737
     22 CAX       -12.6097   -7.2793   12.2755 C.3         1 SU3       0.1374
     23 CAY       -13.9537   -6.8731   12.6342 C.2         1 SU3       0.2444
     24 CAZ       -11.9789   -8.6749   12.5722 C.3         1 SU3      -0.0066
     25 CBA       -11.7455   -7.5120   13.5468 C.3         1 SU3      -0.0152
     26 CBB       -10.3917   -1.4261    4.1091 C.2         1 SU3       0.0383
     27 CBC        -9.8185   -0.1615    4.0517 C.ar        1 SU3      -0.0374
     28 CBD        -8.9668   -0.0432    5.1468 C.ar        1 SU3      -0.0293
     29 CBE        -9.0441   -1.2559    5.8297 C.2         1 SU3       0.0366
     30 CBF        -9.9716    0.8852    3.1280 C.ar        1 SU3      -0.0689
     31 CBG        -9.2381    2.0707    3.3300 C.ar        1 SU3      -0.0688
     32 CBH        -8.3749    2.1964    4.4439 C.ar        1 SU3      -0.0606
     33 CBI        -8.2252    1.1403    5.3775 C.ar        1 SU3      -0.0432
     34 CBJ        -7.3294    1.2779    6.5570 C.3         1 SU3      -0.0194
     35 NBK       -14.1207   -5.6913   13.2052 N.am        1 SU3      -0.1552
     36 OBL       -14.9014   -7.6033   12.3570 O.2         1 SU3      -0.3404
     37 SBM       -15.5639   -5.0495   13.7912 S.o2        1 SU3       0.0645
     38 CBN       -15.2021   -4.4256   15.4514 C.3         1 SU3       0.1004
     39 OBO       -16.1211   -3.9094   12.8315 O.2         1 SU3      -0.1503
     40 OBP       -16.6480   -6.1978   14.0064 O.2         1 SU3      -0.1503
     41 CBQ       -14.1537   -3.3028   15.5423 C.3         1 SU3      -0.0268
     42 CBR       -15.6256   -3.0052   15.8543 C.3         1 SU3      -0.0268
     43 CBS        -8.1263    1.5241    7.8676 C.3         1 SU3      -0.0433
     44 CBT        -7.2484    1.6625    9.1419 C.3         1 SU3      -0.0507
     45 CBU        -6.5480    0.3466    9.5971 C.3         1 SU3      -0.0453
     46 CBV        -5.7592    0.3731   10.9587 C.3         1 SU3      -0.0072
     47 CBW        -5.1123   -1.0372   11.1955 C.3         1 SU3       0.0824
     48 CBX        -4.6094    1.4323   10.9177 C.3         1 SU3      -0.0574
     49 CBY        -6.7102    0.7014   12.1569 C.3         1 SU3      -0.0574
     50 CBZ        -8.3144   -7.6204   12.0870 C.3         1 SU3      -0.0558
     51 CCA        -5.9710   -6.6995   12.2535 C.3         1 SU3      -0.0558
     52 CD1        -8.9916   -5.5100    8.3951 C.3         1 SU3       0.0677
     53 OD2        -9.7062   -3.8876    6.7056 O.3         1 SU3      -0.2338
     54 H1        -11.6084   -4.3882    9.6212 H           1 SU3       0.0803
     55 H2        -12.0335   -4.6894    7.4045 H           1 SU3       0.0342
     56 H3        -11.6853   -6.4195    7.4253 H           1 SU3       0.0342
     57 H4         -9.7042   -5.9337    6.3948 H           1 SU3       0.0673
     58 H5         -7.2477   -5.6020   10.2900 H           1 SU3       0.0805
     59 H6         -7.7603   -3.5365   12.2938 H           1 SU3       0.1899
     60 H7        -13.6119  -10.0403   12.0940 H           1 SU3       0.0265
     61 H8        -12.2412  -10.7878   12.8920 H           1 SU3       0.0265
     62 H9        -14.1361  -10.8415   14.4032 H           1 SU3       0.0230
     63 H10       -14.3683   -9.0894   14.2760 H           1 SU3       0.0230
     64 H11       -12.9149   -9.7421   15.0725 H           1 SU3       0.0230
     65 H12        -7.5038   -6.5219   14.5108 H           1 SU3       0.0237
     66 H13        -8.8185   -5.5228   13.9024 H           1 SU3       0.0237
     67 H14        -7.1740   -4.8753   13.9667 H           1 SU3       0.0237
     68 H15       -11.5005   -5.6110   11.8218 H           1 SU3       0.1839
     69 H16       -11.1026   -8.8943   11.9553 H           1 SU3       0.0312
     70 H17       -12.2511   -7.5738   14.5109 H           1 SU3       0.0279
     71 H18       -10.7283   -7.1078   13.5315 H           1 SU3       0.0279
     72 H19       -11.0629   -1.7937    3.4296 H           1 SU3       0.0373
     73 H20        -8.5051   -1.4853    6.6642 H           1 SU3       0.0361
     74 H21       -10.5948    0.7877    2.3229 H           1 SU3       0.0557
     75 H22        -9.3297    2.8438    2.6677 H           1 SU3       0.0599
     76 H23        -7.8614    3.0729    4.5671 H           1 SU3       0.0557
     77 H24        -6.6359    2.1115    6.4134 H           1 SU3       0.0426
     78 H25        -6.7250    0.3733    6.6391 H           1 SU3       0.0426
     79 H26       -13.3235   -5.1485   13.3399 H           1 SU3       0.2148
     80 H27       -15.1256   -5.1552   16.2640 H           1 SU3       0.0559
     81 H28       -13.7874   -2.8697   14.6073 H           1 SU3       0.0285
     82 H29       -13.4950   -3.3281   16.4128 H           1 SU3       0.0285
     83 H30       -15.8717   -2.8771   16.9085 H           1 SU3       0.0285
     84 H31       -16.1578   -2.4180   15.1054 H           1 SU3       0.0285
     85 H32        -8.8502    0.7221    8.0234 H           1 SU3       0.0287
     86 H33        -8.6949    2.4515    7.7489 H           1 SU3       0.0287
     87 H34        -7.9003    2.0116    9.9446 H           1 SU3       0.0267
     88 H35        -6.4999    2.4369    8.9629 H           1 SU3       0.0267
     89 H36        -5.8524    0.0504    8.8092 H           1 SU3       0.0271
     90 H37        -7.3101   -0.4336    9.6574 H           1 SU3       0.0271
     91 H38        -4.5152   -1.3388   10.3309 H           1 SU3       0.0617
     92 H39        -4.4388   -0.9964   12.0543 H           1 SU3       0.0617
     93 H40        -5.0033    2.4462   10.8245 H           1 SU3       0.0236
     94 H41        -3.9419    1.2476   10.0733 H           1 SU3       0.0236
     95 H42        -4.0142    1.3989   11.8337 H           1 SU3       0.0236
     96 H43        -7.6011    0.0712   12.1357 H           1 SU3       0.0236
     97 H44        -7.0333    1.7431   12.1415 H           1 SU3       0.0236
     98 H45        -6.2029    0.5263   13.1051 H           1 SU3       0.0236
     99 H46        -8.1333   -8.0210   11.0854 H           1 SU3       0.0237
    100 H47        -9.3856   -7.4298   12.1953 H           1 SU3       0.0237
    101 H48        -8.0323   -8.3909   12.8121 H           1 SU3       0.0237
    102 H49        -5.3363   -5.8334   12.4454 H           1 SU3       0.0237
    103 H50        -5.7075   -7.1037   11.2725 H           1 SU3       0.0237
    104 H51        -5.7333   -7.4605   13.0036 H           1 SU3       0.0237
    105 H52        -8.6169   -6.5374    8.3553 H           1 SU3       0.0553
    106 H53        -8.1452   -4.8174    8.3521 H           1 SU3       0.0553
@<TRIPOS>BOND
     1     1     3   2
     2     1     4   1
     3    21     1  am
     4     4     2   1
     5     2     7  am
     6     2    52   1
     7     4     5   1
     8     5     6   1
     9     6    52   1
    10     6    53   1
    11     7     8   2
    12     7     9   1
    13     9    10   1
    14     9    13   1
    15    10    11  am
    16    11    12   1
    17    11    14   2
    18    12    47   1
    19    13    20   1
    20    13    50   1
    21    13    51   1
    22    15    16   2
    23    15    17  am
    24    53    15   1
    25    17    26   1
    26    17    29   1
    27    18    19   1
    28    24    18   1
    29    22    21   1
    30    22    23   1
    31    22    24   1
    32    22    25   1
    33    23    35  am
    34    23    36   2
    35    24    25   1
    36    26    27   2
    37    27    28  ar
    38    27    30  ar
    39    28    29   2
    40    28    33  ar
    41    30    31  ar
    42    31    32  ar
    43    32    33  ar
    44    33    34   1
    45    34    43   1
    46    35    37  am
    47    37    38   1
    48    37    39   2
    49    37    40   2
    50    38    41   1
    51    38    42   1
    52    41    42   1
    53    43    44   1
    54    44    45   1
    55    45    46   1
    56    46    47   1
    57    46    48   1
    58    46    49   1
    59     4    54   1
    60     5    55   1
    61     5    56   1
    62     6    57   1
    63     9    58   1
    64    10    59   1
    65    18    60   1
    66    18    61   1
    67    19    62   1
    68    19    63   1
    69    19    64   1
    70    20    65   1
    71    20    66   1
    72    20    67   1
    73    21    68   1
    74    24    69   1
    75    25    70   1
    76    25    71   1
    77    26    72   1
    78    29    73   1
    79    30    74   1
    80    31    75   1
    81    32    76   1
    82    34    77   1
    83    34    78   1
    84    35    79   1
    85    38    80   1
    86    41    81   1
    87    41    82   1
    88    42    83   1
    89    42    84   1
    90    43    85   1
    91    43    86   1
    92    44    87   1
    93    44    88   1
    94    45    89   1
    95    45    90   1
    96    47    91   1
    97    47    92   1
    98    48    93   1
    99    48    94   1
   100    48    95   1
   101    49    96   1
   102    49    97   1
   103    49    98   1
   104    50    99   1
   105    50   100   1
   106    50   101   1
   107    51   102   1
   108    51   103   1
   109    51   104   1
   110    52   105   1
   111    52   106   1
@<TRIPOS>SUBSTRUCTURE
     1  SU3      1

