@<TRIPOS>MOLECULE
3su5_ligand_059
   106   111
SMALL
GAST_HUCK
****
This file was generated by PARSER (from files_GN.cpp)

@<TRIPOS>ATOM
      1 C         -10.0967   -7.9321    6.7950 C.2         1 SU3       0.2013
      2 N         -10.6758   -6.8456    8.8807 N.am        1 SU3      -0.2469
      3 O         -10.5438   -7.8414    5.6569 O.2         1 SU3      -0.3947
      4 CA        -10.9919   -7.9204    7.9608 C.3         1 SU3       0.1363
      5 CB        -12.4998   -7.7065    7.6743 C.3         1 SU3       0.0206
      6 CG        -12.7062   -6.1863    7.7760 C.3         1 SU3       0.1158
      7 CAF        -9.7538   -6.9272    9.8657 C.2         1 SU3       0.2070
      8 OAG        -9.2726   -8.0277   10.1065 O.2         1 SU3      -0.3942
      9 CAH        -9.3747   -5.8437   10.7919 C.3         1 SU3       0.1378
     10 NAI       -10.0118   -6.1317   12.0450 N.am        1 SU3      -0.2407
     11 CAJ       -10.8641   -5.3237   12.7122 C.2         1 SU3       0.3218
     12 OAK       -11.2407   -5.7162   13.9539 O.3         1 SU3      -0.2633
     13 CAL        -7.8273   -5.5519   11.0012 C.3         1 SU3       0.0025
     14 OAM       -11.2685   -4.1334   12.2130 O.2         1 SU3      -0.3774
     15 CAO       -15.2241   -5.9634    7.7139 C.2         1 SU3       0.4317
     16 OAP       -15.3153   -6.2971    6.4041 O.2         1 SU3      -0.3166
     17 NAQ       -16.3376   -5.7811    8.4689 N.am        1 SU3      -0.2080
     18 CAR        -7.0216   -7.3433    3.4766 C.3         1 SU3      -0.0516
     19 CAS        -7.9949   -8.0275    2.4936 C.3         1 SU3      -0.0651
     20 CAT        -7.6459   -4.2691   11.8884 C.3         1 SU3      -0.0558
     21 NAV        -8.7933   -8.1143    6.9768 N.am        1 SU3      -0.2737
     22 CAX        -7.7825   -8.2876    5.9680 C.3         1 SU3       0.1374
     23 CAY        -7.2305   -9.6355    5.8310 C.2         1 SU3       0.2444
     24 CAZ        -7.6451   -7.1757    4.8859 C.3         1 SU3      -0.0066
     25 CBA        -6.6767   -7.2077    6.0717 C.3         1 SU3      -0.0152
     26 CBB       -17.6238   -5.8429    8.0506 C.2         1 SU3       0.0383
     27 CBC       -18.4591   -5.6838    9.1494 C.ar        1 SU3      -0.0374
     28 CBD       -17.6473   -5.5283   10.2702 C.ar        1 SU3      -0.0293
     29 CBE       -16.3360   -5.5646    9.8029 C.2         1 SU3       0.0366
     30 CBF       -19.8612   -5.6775    9.2682 C.ar        1 SU3      -0.0689
     31 CBG       -20.4263   -5.5137   10.5476 C.ar        1 SU3      -0.0688
     32 CBH       -19.5998   -5.3734   11.6854 C.ar        1 SU3      -0.0606
     33 CBI       -18.1854   -5.3888   11.5692 C.ar        1 SU3      -0.0432
     34 CBJ       -17.3055   -5.2745   12.7647 C.3         1 SU3      -0.0194
     35 NBK        -7.1610  -10.4389    6.8834 N.am        1 SU3      -0.1552
     36 OBL        -6.8058  -10.0194    4.7484 O.2         1 SU3      -0.3404
     37 SBM        -6.5566  -12.0182    6.8677 S.o2        1 SU3       0.0645
     38 CBN        -4.7804  -12.2540    7.1194 C.3         1 SU3       0.1004
     39 OBO        -7.3202  -12.7866    8.0320 O.2         1 SU3      -0.1503
     40 OBP        -7.0543  -12.8108    5.5847 O.2         1 SU3      -0.1503
     41 CBQ        -3.8637  -11.8891    5.9392 C.3         1 SU3      -0.0268
     42 CBR        -3.8587  -11.0278    7.2079 C.3         1 SU3      -0.0268
     43 CBS       -16.6214   -6.6260   13.1192 C.3         1 SU3      -0.0433
     44 CBT       -15.6799   -6.5681   14.3523 C.3         1 SU3      -0.0507
     45 CBU       -14.3104   -5.8636   14.1128 C.3         1 SU3      -0.0453
     46 CBV       -13.3221   -5.7869   15.3387 C.3         1 SU3      -0.0072
     47 CBW       -12.0347   -5.0004   14.9109 C.3         1 SU3       0.0824
     48 CBX       -13.9737   -5.0135   16.5327 C.3         1 SU3      -0.0574
     49 CBY       -12.8990   -7.2122   15.8254 C.3         1 SU3      -0.0574
     50 CBZ        -7.0405   -6.7098   11.7038 C.3         1 SU3      -0.0558
     51 CCA        -7.1547   -5.2762    9.6196 C.3         1 SU3      -0.0558
     52 CD1       -11.5972   -5.7489    8.7551 C.3         1 SU3       0.0677
     53 OD2       -14.0022   -5.8743    8.3049 O.3         1 SU3      -0.2338
     54 H1        -10.9059   -8.9008    8.4427 H           1 SU3       0.0803
     55 H2        -13.0858   -8.2034    8.4563 H           1 SU3       0.0342
     56 H3        -12.8319   -8.0982    6.7089 H           1 SU3       0.0342
     57 H4        -12.5612   -5.7065    6.8024 H           1 SU3       0.0673
     58 H5         -9.7773   -4.9120   10.3885 H           1 SU3       0.0805
     59 H6         -9.7633   -6.9606   12.4838 H           1 SU3       0.1899
     60 H7         -6.7897   -6.3467    3.0957 H           1 SU3       0.0265
     61 H8         -6.0869   -7.9069    3.5071 H           1 SU3       0.0265
     62 H9         -7.5234   -8.1232    1.5148 H           1 SU3       0.0230
     63 H10        -8.9025   -7.4331    2.3851 H           1 SU3       0.0230
     64 H11        -8.2669   -9.0247    2.8442 H           1 SU3       0.0230
     65 H12        -6.5962   -3.9828   11.9561 H           1 SU3       0.0237
     66 H13        -8.0102   -4.4364   12.9041 H           1 SU3       0.0237
     67 H14        -8.1887   -3.4193   11.4756 H           1 SU3       0.0237
     68 H15        -8.4881   -8.2031    7.8917 H           1 SU3       0.1839
     69 H16        -8.3735   -6.3661    4.9705 H           1 SU3       0.0312
     70 H17        -5.6525   -7.5001    5.8290 H           1 SU3       0.0279
     71 H18        -6.8173   -6.3541    6.7363 H           1 SU3       0.0279
     72 H19       -17.9412   -6.0016    7.0914 H           1 SU3       0.0373
     73 H20       -15.5061   -5.4780   10.3943 H           1 SU3       0.0361
     74 H21       -20.4550   -5.7905    8.4443 H           1 SU3       0.0557
     75 H22       -21.4441   -5.5038   10.6559 H           1 SU3       0.0599
     76 H23       -20.0392   -5.2728   12.6027 H           1 SU3       0.0557
     77 H24       -17.8851   -4.9439   13.6315 H           1 SU3       0.0426
     78 H25       -16.5559   -4.5043   12.5727 H           1 SU3       0.0426
     79 H26        -7.4972  -10.1080    7.7288 H           1 SU3       0.2148
     80 H27        -4.4497  -13.1371    7.6705 H           1 SU3       0.0559
     81 H28        -4.3200  -11.4248    5.0651 H           1 SU3       0.0285
     82 H29        -2.9892  -12.5256    5.7996 H           1 SU3       0.0285
     83 H30        -2.9764  -11.1365    7.8387 H           1 SU3       0.0285
     84 H31        -4.3085  -10.0417    7.0901 H           1 SU3       0.0285
     85 H32       -16.0568   -7.0083   12.2665 H           1 SU3       0.0287
     86 H33       -17.4109   -7.3525   13.3352 H           1 SU3       0.0287
     87 H34       -15.4887   -7.5979   14.6612 H           1 SU3       0.0267
     88 H35       -16.2159   -6.0702   15.1608 H           1 SU3       0.0267
     89 H36       -14.5109   -4.8459   13.7693 H           1 SU3       0.0271
     90 H37       -13.8099   -6.3829   13.2905 H           1 SU3       0.0271
     91 H38       -12.3089   -4.0109   14.5348 H           1 SU3       0.0617
     92 H39       -11.3862   -4.8402   15.7763 H           1 SU3       0.0617
     93 H40       -14.8076   -5.5717   16.9617 H           1 SU3       0.0236
     94 H41       -14.3432   -4.0382   16.2078 H           1 SU3       0.0236
     95 H42       -13.2463   -4.8510   17.3303 H           1 SU3       0.0236
     96 H43       -12.5140   -7.8085   14.9951 H           1 SU3       0.0236
     97 H44       -13.7430   -7.7464   16.2627 H           1 SU3       0.0236
     98 H45       -12.1183   -7.1470   16.5871 H           1 SU3       0.0236
     99 H46        -7.0293   -7.6113   11.0952 H           1 SU3       0.0237
    100 H47        -7.4803   -6.9577   12.6700 H           1 SU3       0.0237
    101 H48        -5.9992   -6.4234   11.8768 H           1 SU3       0.0237
    102 H49        -7.6575   -4.4596    9.0995 H           1 SU3       0.0237
    103 H50        -7.2076   -6.1619    8.9891 H           1 SU3       0.0237
    104 H51        -6.1017   -5.0112    9.7367 H           1 SU3       0.0237
    105 H52       -11.0944   -4.8521    8.3847 H           1 SU3       0.0553
    106 H53       -12.0432   -5.5280    9.7295 H           1 SU3       0.0553
@<TRIPOS>BOND
     1     1     3   2
     2     1     4   1
     3    21     1  am
     4     4     2   1
     5     2     7  am
     6     2    52   1
     7     4     5   1
     8     5     6   1
     9     6    52   1
    10     6    53   1
    11     7     8   2
    12     7     9   1
    13     9    10   1
    14     9    13   1
    15    10    11  am
    16    11    12   1
    17    11    14   2
    18    12    47   1
    19    13    20   1
    20    13    50   1
    21    13    51   1
    22    15    16   2
    23    15    17  am
    24    53    15   1
    25    17    26   1
    26    17    29   1
    27    18    19   1
    28    24    18   1
    29    22    21   1
    30    22    23   1
    31    22    24   1
    32    22    25   1
    33    23    35  am
    34    23    36   2
    35    24    25   1
    36    26    27   2
    37    27    28  ar
    38    27    30  ar
    39    28    29   2
    40    28    33  ar
    41    30    31  ar
    42    31    32  ar
    43    32    33  ar
    44    33    34   1
    45    34    43   1
    46    35    37  am
    47    37    38   1
    48    37    39   2
    49    37    40   2
    50    38    41   1
    51    38    42   1
    52    41    42   1
    53    43    44   1
    54    44    45   1
    55    45    46   1
    56    46    47   1
    57    46    48   1
    58    46    49   1
    59     4    54   1
    60     5    55   1
    61     5    56   1
    62     6    57   1
    63     9    58   1
    64    10    59   1
    65    18    60   1
    66    18    61   1
    67    19    62   1
    68    19    63   1
    69    19    64   1
    70    20    65   1
    71    20    66   1
    72    20    67   1
    73    21    68   1
    74    24    69   1
    75    25    70   1
    76    25    71   1
    77    26    72   1
    78    29    73   1
    79    30    74   1
    80    31    75   1
    81    32    76   1
    82    34    77   1
    83    34    78   1
    84    35    79   1
    85    38    80   1
    86    41    81   1
    87    41    82   1
    88    42    83   1
    89    42    84   1
    90    43    85   1
    91    43    86   1
    92    44    87   1
    93    44    88   1
    94    45    89   1
    95    45    90   1
    96    47    91   1
    97    47    92   1
    98    48    93   1
    99    48    94   1
   100    48    95   1
   101    49    96   1
   102    49    97   1
   103    49    98   1
   104    50    99   1
   105    50   100   1
   106    50   101   1
   107    51   102   1
   108    51   103   1
   109    51   104   1
   110    52   105   1
   111    52   106   1
@<TRIPOS>SUBSTRUCTURE
     1  SU3      1

