@<TRIPOS>MOLECULE
3su5_ligand_024
   106   111
SMALL
GAST_HUCK
****
This file was generated by PARSER (from files_GN.cpp)

@<TRIPOS>ATOM
      1 C         -10.2200   -5.3836   11.5360 C.2         1 SU3       0.2013
      2 N         -12.5472   -5.7095   12.1575 N.am        1 SU3      -0.2469
      3 O         -10.1710   -4.6327   12.5003 O.2         1 SU3      -0.3947
      4 CA        -11.4432   -6.1783   11.3332 C.3         1 SU3       0.1363
      5 CB        -12.0342   -6.0884    9.9000 C.3         1 SU3       0.0206
      6 CG        -12.9973   -4.8929    9.9520 C.3         1 SU3       0.1158
      7 CAF       -12.6915   -6.0023   13.4642 C.2         1 SU3       0.2070
      8 OAG       -12.0337   -6.9264   13.9241 O.2         1 SU3      -0.3942
      9 CAH       -13.6181   -5.3217   14.3855 C.3         1 SU3       0.1378
     10 NAI       -14.8348   -6.0839   14.3708 N.am        1 SU3      -0.2407
     11 CAJ       -16.0732   -5.6360   14.0731 C.2         1 SU3       0.3218
     12 OAK       -17.0899   -6.5190   14.2401 O.3         1 SU3      -0.2633
     13 CAL       -13.1262   -5.0297   15.8725 C.3         1 SU3       0.0025
     14 OAM       -16.3140   -4.3566   13.6998 O.2         1 SU3      -0.3774
     15 CAO       -14.2254   -5.0077    7.7453 C.2         1 SU3       0.4317
     16 OAP       -13.1267   -4.7276    7.0058 O.2         1 SU3      -0.3166
     17 NAQ       -15.4185   -5.2872    7.1642 N.am        1 SU3      -0.2080
     18 CAR        -6.7144   -2.3485   10.9620 C.3         1 SU3      -0.0516
     19 CAS        -7.1960   -0.9740   11.4913 C.3         1 SU3      -0.0651
     20 CAT       -13.3274   -6.2531   16.8328 C.3         1 SU3      -0.0558
     21 NAV        -9.1879   -5.5195   10.7050 N.am        1 SU3      -0.2737
     22 CAX        -7.9585   -4.7623   10.5708 C.3         1 SU3       0.1374
     23 CAY        -7.2950   -4.8945    9.2621 C.2         1 SU3       0.2444
     24 CAZ        -7.6498   -3.4972   11.4351 C.3         1 SU3      -0.0066
     25 CBA        -7.0322   -4.8574   11.8138 C.3         1 SU3      -0.0152
     26 CBB       -15.6856   -5.3301    5.8383 C.2         1 SU3       0.0383
     27 CBC       -17.0057   -5.7358    5.6607 C.ar        1 SU3      -0.0374
     28 CBD       -17.5502   -5.9369    6.9269 C.ar        1 SU3      -0.0293
     29 CBE       -16.5441   -5.6209    7.8339 C.2         1 SU3       0.0366
     30 CBF       -17.7665   -5.9665    4.5027 C.ar        1 SU3      -0.0689
     31 CBG       -19.0967   -6.4119    4.6491 C.ar        1 SU3      -0.0688
     32 CBH       -19.6442   -6.6251    5.9337 C.ar        1 SU3      -0.0606
     33 CBI       -18.8760   -6.3981    7.1047 C.ar        1 SU3      -0.0432
     34 CBJ       -19.4302   -6.6478    8.4641 C.3         1 SU3      -0.0194
     35 NBK        -8.0225   -4.9856    8.1531 N.am        1 SU3      -0.1552
     36 OBL        -6.0703   -4.9152    9.1668 O.2         1 SU3      -0.3404
     37 SBM        -7.4204   -5.0710    6.5729 S.o2        1 SU3       0.0645
     38 CBN        -6.7747   -6.6651    5.9991 C.3         1 SU3       0.1004
     39 OBO        -8.6014   -4.5770    5.6290 O.2         1 SU3      -0.1503
     40 OBP        -6.3259   -3.9332    6.3728 O.2         1 SU3      -0.1503
     41 CBQ        -7.5917   -7.9235    6.3309 C.3         1 SU3      -0.0268
     42 CBR        -7.5179   -7.4223    4.8840 C.3         1 SU3      -0.0268
     43 CBS       -18.8220   -7.9152    9.1337 C.3         1 SU3      -0.0433
     44 CBT       -19.3055   -8.1728   10.5880 C.3         1 SU3      -0.0507
     45 CBU       -18.6928   -7.2221   11.6636 C.3         1 SU3      -0.0453
     46 CBV       -19.1594   -7.4241   13.1555 C.3         1 SU3      -0.0072
     47 CBW       -18.4993   -6.3219   14.0591 C.3         1 SU3       0.0824
     48 CBX       -20.7123   -7.2705   13.2764 C.3         1 SU3      -0.0574
     49 CBY       -18.7477   -8.8359   13.6895 C.3         1 SU3      -0.0574
     50 CBZ       -11.6186   -4.6008   15.9239 C.3         1 SU3      -0.0558
     51 CCA       -13.9568   -3.8320   16.4549 C.3         1 SU3      -0.0558
     52 CD1       -13.4467   -4.8627   11.4227 C.3         1 SU3       0.0677
     53 OD2       -14.1367   -5.0503    9.1003 O.3         1 SU3      -0.2338
     54 H1        -11.2043   -7.2298   11.5290 H           1 SU3       0.0803
     55 H2        -12.6000   -7.0055    9.6861 H           1 SU3       0.0342
     56 H3        -11.2925   -5.9555    9.1069 H           1 SU3       0.0342
     57 H4        -12.4633   -3.9705    9.7054 H           1 SU3       0.0673
     58 H5        -13.8075   -4.3394   13.9518 H           1 SU3       0.0805
     59 H6        -14.7670   -7.0115   14.6482 H           1 SU3       0.1899
     60 H7         -5.6933   -2.5180   11.3159 H           1 SU3       0.0265
     61 H8         -6.7006   -2.3010    9.8700 H           1 SU3       0.0265
     62 H9         -6.5121   -0.1860   11.1619 H           1 SU3       0.0230
     63 H10        -7.2241   -0.9733   12.5816 H           1 SU3       0.0230
     64 H11        -8.1952   -0.7526   11.1124 H           1 SU3       0.0230
     65 H12       -12.9083   -6.0536   17.8220 H           1 SU3       0.0237
     66 H13       -12.8455   -7.1474   16.4384 H           1 SU3       0.0237
     67 H14       -14.3884   -6.4724   16.9670 H           1 SU3       0.0237
     68 H15        -9.3196   -6.1864   10.0155 H           1 SU3       0.1839
     69 H16        -8.3810   -3.1925   12.1753 H           1 SU3       0.0312
     70 H17        -5.9606   -4.9681   11.6517 H           1 SU3       0.0279
     71 H18        -7.4618   -5.3344   12.6940 H           1 SU3       0.0279
     72 H19       -15.0282   -5.1292    5.0818 H           1 SU3       0.0373
     73 H20       -16.6432   -5.6681    8.8512 H           1 SU3       0.0361
     74 H21       -17.3628   -5.8236    3.5745 H           1 SU3       0.0557
     75 H22       -19.6639   -6.5931    3.8181 H           1 SU3       0.0599
     76 H23       -20.6064   -6.9638    6.0073 H           1 SU3       0.0557
     77 H24       -20.5154   -6.7747    8.4130 H           1 SU3       0.0426
     78 H25       -19.2438   -5.7639    9.0768 H           1 SU3       0.0426
     79 H26        -8.9896   -4.9974    8.2452 H           1 SU3       0.2148
     80 H27        -5.6943   -6.8156    6.0172 H           1 SU3       0.0559
     81 H28        -8.5527   -7.7779    6.8267 H           1 SU3       0.0285
     82 H29        -7.0136   -8.8258    6.5410 H           1 SU3       0.0285
     83 H30        -6.9091   -8.0405    4.2210 H           1 SU3       0.0285
     84 H31        -8.4515   -7.0031    4.5064 H           1 SU3       0.0285
     85 H32       -17.7313   -7.8663    9.1341 H           1 SU3       0.0287
     86 H33       -19.1042   -8.7801    8.5257 H           1 SU3       0.0287
     87 H34       -19.0386   -9.2006   10.8429 H           1 SU3       0.0267
     88 H35       -20.3941   -8.1022   10.5978 H           1 SU3       0.0267
     89 H36       -18.9208   -6.1944   11.3727 H           1 SU3       0.0271
     90 H37       -17.6047   -7.3282   11.6218 H           1 SU3       0.0271
     91 H38       -18.7091   -5.3270   13.6555 H           1 SU3       0.0617
     92 H39       -18.9331   -6.3542   15.0607 H           1 SU3       0.0617
     93 H40       -21.2347   -8.0805   12.7654 H           1 SU3       0.0236
     94 H41       -21.0402   -6.3237   12.8416 H           1 SU3       0.0236
     95 H42       -21.0267   -7.2936   14.3224 H           1 SU3       0.0236
     96 H43       -17.6807   -9.0133   13.5374 H           1 SU3       0.0236
     97 H44       -19.2974   -9.6287   13.1796 H           1 SU3       0.0236
     98 H45       -18.9567   -8.9228   14.7580 H           1 SU3       0.0236
     99 H46       -11.4268   -3.7958   15.2139 H           1 SU3       0.0237
    100 H47       -10.9582   -5.4340   15.6827 H           1 SU3       0.0237
    101 H48       -11.3348   -4.2475   16.9189 H           1 SU3       0.0237
    102 H49       -15.0248   -4.0570   16.4521 H           1 SU3       0.0237
    103 H50       -13.8021   -2.9299   15.8591 H           1 SU3       0.0237
    104 H51       -13.6648   -3.6015   17.4809 H           1 SU3       0.0237
    105 H52       -13.4196   -3.8314   11.7836 H           1 SU3       0.0553
    106 H53       -14.4625   -5.2511   11.5196 H           1 SU3       0.0553
@<TRIPOS>BOND
     1     1     3   2
     2     1     4   1
     3    21     1  am
     4     4     2   1
     5     2     7  am
     6     2    52   1
     7     4     5   1
     8     5     6   1
     9     6    52   1
    10     6    53   1
    11     7     8   2
    12     7     9   1
    13     9    10   1
    14     9    13   1
    15    10    11  am
    16    11    12   1
    17    11    14   2
    18    12    47   1
    19    13    20   1
    20    13    50   1
    21    13    51   1
    22    15    16   2
    23    15    17  am
    24    53    15   1
    25    17    26   1
    26    17    29   1
    27    18    19   1
    28    24    18   1
    29    22    21   1
    30    22    23   1
    31    22    24   1
    32    22    25   1
    33    23    35  am
    34    23    36   2
    35    24    25   1
    36    26    27   2
    37    27    28  ar
    38    27    30  ar
    39    28    29   2
    40    28    33  ar
    41    30    31  ar
    42    31    32  ar
    43    32    33  ar
    44    33    34   1
    45    34    43   1
    46    35    37  am
    47    37    38   1
    48    37    39   2
    49    37    40   2
    50    38    41   1
    51    38    42   1
    52    41    42   1
    53    43    44   1
    54    44    45   1
    55    45    46   1
    56    46    47   1
    57    46    48   1
    58    46    49   1
    59     4    54   1
    60     5    55   1
    61     5    56   1
    62     6    57   1
    63     9    58   1
    64    10    59   1
    65    18    60   1
    66    18    61   1
    67    19    62   1
    68    19    63   1
    69    19    64   1
    70    20    65   1
    71    20    66   1
    72    20    67   1
    73    21    68   1
    74    24    69   1
    75    25    70   1
    76    25    71   1
    77    26    72   1
    78    29    73   1
    79    30    74   1
    80    31    75   1
    81    32    76   1
    82    34    77   1
    83    34    78   1
    84    35    79   1
    85    38    80   1
    86    41    81   1
    87    41    82   1
    88    42    83   1
    89    42    84   1
    90    43    85   1
    91    43    86   1
    92    44    87   1
    93    44    88   1
    94    45    89   1
    95    45    90   1
    96    47    91   1
    97    47    92   1
    98    48    93   1
    99    48    94   1
   100    48    95   1
   101    49    96   1
   102    49    97   1
   103    49    98   1
   104    50    99   1
   105    50   100   1
   106    50   101   1
   107    51   102   1
   108    51   103   1
   109    51   104   1
   110    52   105   1
   111    52   106   1
@<TRIPOS>SUBSTRUCTURE
     1  SU3      1

