@<TRIPOS>MOLECULE
3su5_ligand_012
   106   111
SMALL
GAST_HUCK
****
This file was generated by PARSER (from files_GN.cpp)

@<TRIPOS>ATOM
      1 C         -13.1843   -8.2270   13.4763 C.2         1 SU3       0.2013
      2 N         -14.9943   -9.9133   13.4585 N.am        1 SU3      -0.2469
      3 O         -13.9916   -7.4017   13.0412 O.2         1 SU3      -0.3947
      4 CA        -13.5945   -9.6116   13.6817 C.3         1 SU3       0.1363
      5 CB        -12.8111  -10.5420   12.7244 C.3         1 SU3       0.0206
      6 CG        -13.7922  -11.6857   12.4160 C.3         1 SU3       0.1158
      7 CAF       -16.0077   -9.3095   14.1156 C.2         1 SU3       0.2070
      8 OAG       -15.7207   -8.5543   15.0371 O.2         1 SU3      -0.3942
      9 CAH       -17.4482   -9.4614   13.8252 C.3         1 SU3       0.1378
     10 NAI       -18.1190   -9.8483   15.0417 N.am        1 SU3      -0.2407
     11 CAJ       -18.6971  -11.0462   15.2884 C.2         1 SU3       0.3218
     12 OAK       -19.3139  -11.2162   16.4858 O.3         1 SU3      -0.2633
     13 CAL       -18.1295   -8.1997   13.1418 C.3         1 SU3       0.0025
     14 OAM       -18.6630  -12.0583   14.3840 O.2         1 SU3      -0.3774
     15 CAO       -12.6881  -13.6251   13.5605 C.2         1 SU3       0.4317
     16 OAP       -11.6018  -13.5667   12.7497 O.2         1 SU3      -0.3166
     17 NAQ       -12.7728  -14.5650   14.5313 N.am        1 SU3      -0.2080
     18 CAR        -8.9488   -5.3342   13.9523 C.3         1 SU3      -0.0516
     19 CAS        -7.5288   -5.7046   14.4216 C.3         1 SU3      -0.0651
     20 CAT       -17.7581   -8.1615   11.6209 C.3         1 SU3      -0.0558
     21 NAV       -11.9272   -7.8731   13.7219 N.am        1 SU3      -0.2737
     22 CAX       -11.3466   -6.5840   13.4857 C.3         1 SU3       0.1374
     23 CAY       -12.1177   -5.4301   13.9138 C.2         1 SU3       0.2444
     24 CAZ        -9.7874   -6.5705   13.5226 C.3         1 SU3      -0.0066
     25 CBA       -10.5291   -6.4499   12.1797 C.3         1 SU3      -0.0152
     26 CBB       -11.8242  -15.4820   14.8339 C.2         1 SU3       0.0383
     27 CBC       -12.2952  -16.2855   15.8631 C.ar        1 SU3      -0.0374
     28 CBD       -13.5689  -15.8356   16.2009 C.ar        1 SU3      -0.0293
     29 CBE       -13.8303  -14.7567   15.3537 C.2         1 SU3       0.0366
     30 CBF       -11.7084  -17.3800   16.5189 C.ar        1 SU3      -0.0689
     31 CBG       -12.4468  -18.0271   17.5262 C.ar        1 SU3      -0.0688
     32 CBH       -13.7448  -17.5795   17.8667 C.ar        1 SU3      -0.0606
     33 CBI       -14.3306  -16.4631   17.2118 C.ar        1 SU3      -0.0432
     34 CBJ       -15.6932  -15.9846   17.5788 C.3         1 SU3      -0.0194
     35 NBK       -13.1156   -5.0544   13.1369 N.am        1 SU3      -0.1552
     36 OBL       -11.9638   -4.9995   15.0502 O.2         1 SU3      -0.3404
     37 SBM       -14.3378   -3.9582   13.5396 S.o2        1 SU3       0.0645
     38 CBN       -14.9547   -3.1261   12.0582 C.3         1 SU3       0.1004
     39 OBO       -15.5582   -4.7074   14.2325 O.2         1 SU3      -0.1503
     40 OBP       -13.7964   -2.8110   14.4960 O.2         1 SU3      -0.1503
     41 CBQ       -14.0279   -3.0736   10.8284 C.3         1 SU3      -0.0268
     42 CBR       -15.2621   -3.9854   10.8178 C.3         1 SU3      -0.0268
     43 CBS       -15.6473  -14.6961   18.4464 C.3         1 SU3      -0.0433
     44 CBT       -17.0378  -14.1903   18.9249 C.3         1 SU3      -0.0507
     45 CBU       -17.9076  -13.5329   17.8107 C.3         1 SU3      -0.0453
     46 CBV       -19.3467  -13.0299   18.2107 C.3         1 SU3      -0.0072
     47 CBW       -20.0237  -12.3749   16.9564 C.3         1 SU3       0.0824
     48 CBX       -20.2480  -14.2272   18.6548 C.3         1 SU3      -0.0574
     49 CBY       -19.2885  -11.9755   19.3633 C.3         1 SU3      -0.0574
     50 CBZ       -19.6909   -8.3085   13.2334 C.3         1 SU3      -0.0558
     51 CCA       -17.7086   -6.8407   13.7907 C.3         1 SU3      -0.0558
     52 CD1       -15.1615  -10.9892   12.5235 C.3         1 SU3       0.0677
     53 OD2       -13.7101  -12.7432   13.3826 O.3         1 SU3      -0.2338
     54 H1        -13.3577   -9.8882   14.7176 H           1 SU3       0.0803
     55 H2        -11.8892  -10.9041   13.1839 H           1 SU3       0.0342
     56 H3        -12.5593  -10.0462   11.7818 H           1 SU3       0.0342
     57 H4        -13.6475  -12.0918   11.4092 H           1 SU3       0.0673
     58 H5        -17.5869  -10.2671   13.1045 H           1 SU3       0.0805
     59 H6        -18.2078   -9.1701   15.7329 H           1 SU3       0.1899
     60 H7         -8.8490   -4.6360   13.1163 H           1 SU3       0.0265
     61 H8         -9.4464   -4.8223   14.7781 H           1 SU3       0.0265
     62 H9         -6.9952   -4.7985   14.7167 H           1 SU3       0.0230
     63 H10        -6.9749   -6.1908   13.6133 H           1 SU3       0.0230
     64 H11        -7.5746   -6.3790   15.2812 H           1 SU3       0.0230
     65 H12       -18.2123   -7.2990   11.1258 H           1 SU3       0.0237
     66 H13       -18.1104   -9.0633   11.1129 H           1 SU3       0.0237
     67 H14       -16.6780   -8.0966   11.4843 H           1 SU3       0.0237
     68 H15       -11.3241   -8.5554   14.0528 H           1 SU3       0.1839
     69 H16        -9.3228   -7.5523   13.6363 H           1 SU3       0.0312
     70 H17       -10.5424   -5.4671   11.7018 H           1 SU3       0.0279
     71 H18       -10.4936   -7.3365   11.5439 H           1 SU3       0.0279
     72 H19       -10.9118  -15.5860   14.3837 H           1 SU3       0.0373
     73 H20       -14.6973  -14.2185   15.3472 H           1 SU3       0.0361
     74 H21       -10.7730  -17.6990   16.2679 H           1 SU3       0.0557
     75 H22       -12.0430  -18.8290   18.0115 H           1 SU3       0.0599
     76 H23       -14.2572  -18.0744   18.6034 H           1 SU3       0.0557
     77 H24       -16.2260  -16.7590   18.1359 H           1 SU3       0.0426
     78 H25       -16.2583  -15.8081   16.6627 H           1 SU3       0.0426
     79 H26       -13.1977   -5.4803   12.2736 H           1 SU3       0.2148
     80 H27       -15.5949   -2.2488   12.1823 H           1 SU3       0.0559
     81 H28       -13.0811   -3.6108   10.8639 H           1 SU3       0.0285
     82 H29       -14.1132   -2.1896   10.1936 H           1 SU3       0.0285
     83 H30       -16.0549   -3.6411   10.1542 H           1 SU3       0.0285
     84 H31       -15.0553   -5.0527   10.8913 H           1 SU3       0.0285
     85 H32       -15.1444  -13.8928   17.9019 H           1 SU3       0.0287
     86 H33       -15.0471  -14.9109   19.3367 H           1 SU3       0.0287
     87 H34       -16.8617  -13.4496   19.7096 H           1 SU3       0.0267
     88 H35       -17.5726  -15.0276   19.3768 H           1 SU3       0.0267
     89 H36       -18.0155  -14.2507   16.9951 H           1 SU3       0.0271
     90 H37       -17.3350  -12.6895   17.4164 H           1 SU3       0.0271
     91 H38       -20.1224  -13.1200   16.1612 H           1 SU3       0.0617
     92 H39       -21.0356  -12.0431   17.2035 H           1 SU3       0.0617
     93 H40       -19.8811  -14.6802   19.5758 H           1 SU3       0.0236
     94 H41       -20.2743  -14.9994   17.8829 H           1 SU3       0.0236
     95 H42       -21.2726  -13.8953   18.8345 H           1 SU3       0.0236
     96 H43       -18.5902  -11.1720   19.1177 H           1 SU3       0.0236
     97 H44       -18.9673  -12.4351   20.2991 H           1 SU3       0.0236
     98 H45       -20.2715  -11.5314   19.5373 H           1 SU3       0.0236
     99 H46       -20.0303   -8.2280   14.2694 H           1 SU3       0.0237
    100 H47       -20.0374   -9.2652   12.8352 H           1 SU3       0.0237
    101 H48       -20.1770   -7.5100   12.6652 H           1 SU3       0.0237
    102 H49       -16.6534   -6.6367   13.6053 H           1 SU3       0.0237
    103 H50       -17.8744   -6.8578   14.8691 H           1 SU3       0.0237
    104 H51       -18.2790   -6.0069   13.3738 H           1 SU3       0.0237
    105 H52       -15.4686  -10.5801   11.5591 H           1 SU3       0.0553
    106 H53       -15.8997  -11.7269   12.8500 H           1 SU3       0.0553
@<TRIPOS>BOND
     1     1     3   2
     2     1     4   1
     3    21     1  am
     4     4     2   1
     5     2     7  am
     6     2    52   1
     7     4     5   1
     8     5     6   1
     9     6    52   1
    10     6    53   1
    11     7     8   2
    12     7     9   1
    13     9    10   1
    14     9    13   1
    15    10    11  am
    16    11    12   1
    17    11    14   2
    18    12    47   1
    19    13    20   1
    20    13    50   1
    21    13    51   1
    22    15    16   2
    23    15    17  am
    24    53    15   1
    25    17    26   1
    26    17    29   1
    27    18    19   1
    28    24    18   1
    29    22    21   1
    30    22    23   1
    31    22    24   1
    32    22    25   1
    33    23    35  am
    34    23    36   2
    35    24    25   1
    36    26    27   2
    37    27    28  ar
    38    27    30  ar
    39    28    29   2
    40    28    33  ar
    41    30    31  ar
    42    31    32  ar
    43    32    33  ar
    44    33    34   1
    45    34    43   1
    46    35    37  am
    47    37    38   1
    48    37    39   2
    49    37    40   2
    50    38    41   1
    51    38    42   1
    52    41    42   1
    53    43    44   1
    54    44    45   1
    55    45    46   1
    56    46    47   1
    57    46    48   1
    58    46    49   1
    59     4    54   1
    60     5    55   1
    61     5    56   1
    62     6    57   1
    63     9    58   1
    64    10    59   1
    65    18    60   1
    66    18    61   1
    67    19    62   1
    68    19    63   1
    69    19    64   1
    70    20    65   1
    71    20    66   1
    72    20    67   1
    73    21    68   1
    74    24    69   1
    75    25    70   1
    76    25    71   1
    77    26    72   1
    78    29    73   1
    79    30    74   1
    80    31    75   1
    81    32    76   1
    82    34    77   1
    83    34    78   1
    84    35    79   1
    85    38    80   1
    86    41    81   1
    87    41    82   1
    88    42    83   1
    89    42    84   1
    90    43    85   1
    91    43    86   1
    92    44    87   1
    93    44    88   1
    94    45    89   1
    95    45    90   1
    96    47    91   1
    97    47    92   1
    98    48    93   1
    99    48    94   1
   100    48    95   1
   101    49    96   1
   102    49    97   1
   103    49    98   1
   104    50    99   1
   105    50   100   1
   106    50   101   1
   107    51   102   1
   108    51   103   1
   109    51   104   1
   110    52   105   1
   111    52   106   1
@<TRIPOS>SUBSTRUCTURE
     1  SU3      1

