@<TRIPOS>MOLECULE
3su5_ligand_082
   106   111
SMALL
GAST_HUCK
****
This file was generated by PARSER (from files_GN.cpp)

@<TRIPOS>ATOM
      1 C         -15.4407   -9.5614   13.9017 C.2         1 SU3       0.2013
      2 N         -14.1875  -11.5028   13.1553 N.am        1 SU3      -0.2469
      3 O         -15.7952   -9.1025   14.9794 O.2         1 SU3      -0.3947
      4 CA        -15.4521  -11.0150   13.6617 C.3         1 SU3       0.1363
      5 CB        -15.6786  -11.9032   14.9025 C.3         1 SU3       0.0206
      6 CG        -14.2625  -12.1120   15.4660 C.3         1 SU3       0.1158
      7 CAF       -13.8844  -11.5972   11.8452 C.2         1 SU3       0.2070
      8 OAG       -14.7762  -11.3648   11.0348 O.2         1 SU3      -0.3942
      9 CAH       -12.5911  -12.0216   11.2826 C.3         1 SU3       0.1378
     10 NAI       -12.7393  -13.3849   10.8324 N.am        1 SU3      -0.2407
     11 CAJ       -12.0618  -14.4684   11.2921 C.2         1 SU3       0.3218
     12 OAK       -12.2605  -15.6700   10.6890 O.3         1 SU3      -0.2633
     13 CAL       -11.9706  -11.0696   10.1694 C.3         1 SU3       0.0025
     14 OAM       -11.1533  -14.3599   12.2937 O.2         1 SU3      -0.3774
     15 CAO       -14.6030  -13.7059   17.3905 C.2         1 SU3       0.4317
     16 OAP       -15.1396  -12.7578   18.2008 O.2         1 SU3      -0.3166
     17 NAQ       -14.5972  -15.0077   17.7616 N.am        1 SU3      -0.2080
     18 CAR       -14.8340   -5.2223   11.1580 C.3         1 SU3      -0.0516
     19 CAS       -13.5315   -5.1878   10.3300 C.3         1 SU3      -0.0651
     20 CAT       -12.7142  -11.1316    8.7895 C.3         1 SU3      -0.0558
     21 NAV       -15.1465   -8.7441   12.9013 N.am        1 SU3      -0.2737
     22 CAX       -15.2890   -7.3138   12.9048 C.3         1 SU3       0.1374
     23 CAY       -14.7609   -6.5480   14.0147 C.2         1 SU3       0.2444
     24 CAZ       -15.2502   -6.6802   11.4841 C.3         1 SU3      -0.0066
     25 CBA       -16.5822   -6.7938   12.2408 C.3         1 SU3      -0.0152
     26 CBB       -15.1000  -15.5250   18.9036 C.2         1 SU3       0.0383
     27 CBC       -15.0441  -16.9236   18.8271 C.ar        1 SU3      -0.0374
     28 CBD       -14.4572  -17.2319   17.6042 C.ar        1 SU3      -0.0293
     29 CBE       -14.1643  -16.0348   16.9847 C.2         1 SU3       0.0366
     30 CBF       -15.4838  -17.9118   19.7060 C.ar        1 SU3      -0.0689
     31 CBG       -15.3462  -19.2670   19.3156 C.ar        1 SU3      -0.0688
     32 CBH       -14.7606  -19.5899   18.0720 C.ar        1 SU3      -0.0606
     33 CBI       -14.2984  -18.5887   17.1873 C.ar        1 SU3      -0.0432
     34 CBJ       -13.6927  -18.9229   15.8716 C.3         1 SU3      -0.0194
     35 NBK       -13.5902   -5.9581   13.9105 N.am        1 SU3      -0.1552
     36 OBL       -15.3554   -6.6559   15.0903 O.2         1 SU3      -0.3404
     37 SBM       -12.8320   -5.0698   15.1292 S.o2        1 SU3       0.0645
     38 CBN       -12.1141   -5.9544   16.5373 C.3         1 SU3       0.1004
     39 OBO       -11.5942   -4.3588   14.4100 O.2         1 SU3      -0.1503
     40 OBP       -13.7165   -3.8305   15.5816 O.2         1 SU3      -0.1503
     41 CBQ       -13.0556   -6.7386   17.4636 C.3         1 SU3      -0.0268
     42 CBR       -12.1200   -7.4910   16.5048 C.3         1 SU3      -0.0268
     43 CBS       -14.6654  -18.6610   14.6855 C.3         1 SU3      -0.0433
     44 CBT       -14.0747  -18.9686   13.2812 C.3         1 SU3      -0.0507
     45 CBU       -13.0998  -17.8821   12.7275 C.3         1 SU3      -0.0453
     46 CBV       -12.4809  -18.1240   11.2994 C.3         1 SU3      -0.0072
     47 CBW       -11.5588  -16.9120   10.9185 C.3         1 SU3       0.0824
     48 CBX       -11.5993  -19.4199   11.2982 C.3         1 SU3      -0.0574
     49 CBY       -13.5899  -18.2734   10.2075 C.3         1 SU3      -0.0574
     50 CBZ       -11.9692   -9.5818   10.6629 C.3         1 SU3      -0.0558
     51 CCA       -10.4816  -11.4805    9.9145 C.3         1 SU3      -0.0558
     52 CD1       -13.3904  -12.0975   14.1947 C.3         1 SU3       0.0677
     53 OD2       -14.1562  -13.3650   16.1524 O.3         1 SU3      -0.2338
     54 H1        -16.2777  -11.2176   12.9714 H           1 SU3       0.0803
     55 H2        -16.0947  -12.8668   14.5862 H           1 SU3       0.0342
     56 H3        -16.3610  -11.4682   15.6351 H           1 SU3       0.0342
     57 H4        -13.9755  -11.2808   16.1195 H           1 SU3       0.0673
     58 H5        -11.8591  -11.9986   12.0937 H           1 SU3       0.0805
     59 H6        -13.3666  -13.5431   10.1077 H           1 SU3       0.1899
     60 H7        -15.6269   -4.7523   10.5712 H           1 SU3       0.0265
     61 H8        -14.6930   -4.6368   12.0718 H           1 SU3       0.0265
     62 H9        -13.2381   -4.1516   10.1484 H           1 SU3       0.0230
     63 H10       -13.6870   -5.6799    9.3673 H           1 SU3       0.0230
     64 H11       -12.7205   -5.6924   10.8584 H           1 SU3       0.0230
     65 H12       -12.1681  -10.5695    8.0272 H           1 SU3       0.0237
     66 H13       -13.7102  -10.6991    8.8482 H           1 SU3       0.0237
     67 H14       -12.8035  -12.1618    8.4436 H           1 SU3       0.0237
     68 H15       -14.8835   -9.1451   12.0554 H           1 SU3       0.1839
     69 H16       -15.2072   -7.3856   10.6459 H           1 SU3       0.0312
     70 H17       -16.9936   -5.8677   12.6440 H           1 SU3       0.0279
     71 H18       -17.2687   -7.5490   11.8479 H           1 SU3       0.0279
     72 H19       -15.5184  -15.0054   19.6765 H           1 SU3       0.0373
     73 H20       -13.7399  -15.9374   16.0588 H           1 SU3       0.0361
     74 H21       -15.9189  -17.6718   20.6012 H           1 SU3       0.0557
     75 H22       -15.6742  -20.0057   19.9365 H           1 SU3       0.0599
     76 H23       -14.6826  -20.5781   17.8134 H           1 SU3       0.0557
     77 H24       -13.4032  -19.9785   15.8511 H           1 SU3       0.0426
     78 H25       -12.7750  -18.3449   15.7447 H           1 SU3       0.0426
     79 H26       -13.1482   -5.9884   13.0420 H           1 SU3       0.2148
     80 H27       -11.2634   -5.4982   17.0511 H           1 SU3       0.0559
     81 H28       -14.1133   -6.7660   17.2035 H           1 SU3       0.0285
     82 H29       -12.7649   -6.7707   18.5185 H           1 SU3       0.0285
     83 H30       -11.2686   -7.9821   16.9807 H           1 SU3       0.0285
     84 H31       -12.5993   -7.9641   15.6475 H           1 SU3       0.0285
     85 H32       -15.0145  -17.6261   14.7020 H           1 SU3       0.0287
     86 H33       -15.5430  -19.2990   14.8293 H           1 SU3       0.0287
     87 H34       -14.9161  -19.0604   12.5915 H           1 SU3       0.0267
     88 H35       -13.5758  -19.9384   13.3224 H           1 SU3       0.0267
     89 H36       -12.2811  -17.7695   13.4425 H           1 SU3       0.0271
     90 H37       -13.6406  -16.9320   12.7126 H           1 SU3       0.0271
     91 H38       -10.7857  -16.7887   11.6811 H           1 SU3       0.0617
     92 H39       -11.0409  -17.1303    9.9827 H           1 SU3       0.0617
     93 H40       -12.2021  -20.3134   11.4699 H           1 SU3       0.0236
     94 H41       -10.8343  -19.3709   12.0772 H           1 SU3       0.0236
     95 H42       -11.0955  -19.5498   10.3371 H           1 SU3       0.0236
     96 H43       -14.2806  -17.4283   10.2404 H           1 SU3       0.0236
     97 H44       -14.1660  -19.1895   10.3498 H           1 SU3       0.0236
     98 H45       -13.1485  -18.3154    9.2089 H           1 SU3       0.0236
     99 H46       -11.4356   -9.4878   11.6135 H           1 SU3       0.0237
    100 H47       -12.9874   -9.2168   10.8118 H           1 SU3       0.0237
    101 H48       -11.4842   -8.9224    9.9368 H           1 SU3       0.0237
    102 H49       -10.4190  -12.5028    9.5376 H           1 SU3       0.0237
    103 H50        -9.8979  -11.4252   10.8402 H           1 SU3       0.0237
    104 H51       -10.0062  -10.8240    9.1805 H           1 SU3       0.0237
    105 H52       -12.4776  -11.5217   14.3616 H           1 SU3       0.0553
    106 H53       -13.1241  -13.1222   13.9192 H           1 SU3       0.0553
@<TRIPOS>BOND
     1     1     3   2
     2     1     4   1
     3    21     1  am
     4     4     2   1
     5     2     7  am
     6     2    52   1
     7     4     5   1
     8     5     6   1
     9     6    52   1
    10     6    53   1
    11     7     8   2
    12     7     9   1
    13     9    10   1
    14     9    13   1
    15    10    11  am
    16    11    12   1
    17    11    14   2
    18    12    47   1
    19    13    20   1
    20    13    50   1
    21    13    51   1
    22    15    16   2
    23    15    17  am
    24    53    15   1
    25    17    26   1
    26    17    29   1
    27    18    19   1
    28    24    18   1
    29    22    21   1
    30    22    23   1
    31    22    24   1
    32    22    25   1
    33    23    35  am
    34    23    36   2
    35    24    25   1
    36    26    27   2
    37    27    28  ar
    38    27    30  ar
    39    28    29   2
    40    28    33  ar
    41    30    31  ar
    42    31    32  ar
    43    32    33  ar
    44    33    34   1
    45    34    43   1
    46    35    37  am
    47    37    38   1
    48    37    39   2
    49    37    40   2
    50    38    41   1
    51    38    42   1
    52    41    42   1
    53    43    44   1
    54    44    45   1
    55    45    46   1
    56    46    47   1
    57    46    48   1
    58    46    49   1
    59     4    54   1
    60     5    55   1
    61     5    56   1
    62     6    57   1
    63     9    58   1
    64    10    59   1
    65    18    60   1
    66    18    61   1
    67    19    62   1
    68    19    63   1
    69    19    64   1
    70    20    65   1
    71    20    66   1
    72    20    67   1
    73    21    68   1
    74    24    69   1
    75    25    70   1
    76    25    71   1
    77    26    72   1
    78    29    73   1
    79    30    74   1
    80    31    75   1
    81    32    76   1
    82    34    77   1
    83    34    78   1
    84    35    79   1
    85    38    80   1
    86    41    81   1
    87    41    82   1
    88    42    83   1
    89    42    84   1
    90    43    85   1
    91    43    86   1
    92    44    87   1
    93    44    88   1
    94    45    89   1
    95    45    90   1
    96    47    91   1
    97    47    92   1
    98    48    93   1
    99    48    94   1
   100    48    95   1
   101    49    96   1
   102    49    97   1
   103    49    98   1
   104    50    99   1
   105    50   100   1
   106    50   101   1
   107    51   102   1
   108    51   103   1
   109    51   104   1
   110    52   105   1
   111    52   106   1
@<TRIPOS>SUBSTRUCTURE
     1  SU3      1

