@<TRIPOS>MOLECULE
3su5_ligand_055
   106   111
SMALL
GAST_HUCK
****
This file was generated by PARSER (from files_GN.cpp)

@<TRIPOS>ATOM
      1 C         -14.2578   -9.7056   10.5612 C.2         1 SU3       0.2013
      2 N         -12.7642  -11.5799   10.6789 N.am        1 SU3      -0.2469
      3 O         -14.5462   -9.5014    9.3906 O.2         1 SU3      -0.3947
      4 CA        -14.0905  -11.0999   10.9940 C.3         1 SU3       0.1363
      5 CB        -14.2602  -11.3875   12.5071 C.3         1 SU3       0.0206
      6 CG        -12.8301  -11.3991   13.0792 C.3         1 SU3       0.1158
      7 CAF       -12.3745  -11.9658    9.4473 C.2         1 SU3       0.2070
      8 OAG       -13.2284  -12.0371    8.5738 O.2         1 SU3      -0.3942
      9 CAH       -11.0162  -12.3907    9.0702 C.3         1 SU3       0.1378
     10 NAI       -11.0406  -13.8266    8.9760 N.am        1 SU3      -0.2407
     11 CAJ       -10.2859  -14.6989    9.6823 C.2         1 SU3       0.3218
     12 OAK       -10.4093  -16.0161    9.3797 O.3         1 SU3      -0.2633
     13 CAL       -10.4008  -11.7235    7.7676 C.3         1 SU3       0.0025
     14 OAM        -9.3971  -14.2883   10.6165 O.2         1 SU3      -0.3774
     15 CAO       -13.1918  -12.5015   15.3226 C.2         1 SU3       0.4317
     16 OAP       -13.8778  -11.4513   15.8378 O.2         1 SU3      -0.3166
     17 NAQ       -13.0723  -13.6648   16.0079 N.am        1 SU3      -0.2080
     18 CAR       -13.2595   -5.0850    9.8625 C.3         1 SU3      -0.0516
     19 CAS       -13.6562   -4.3981    8.5358 C.3         1 SU3      -0.0651
     20 CAT       -11.0453  -12.2351    6.4332 C.3         1 SU3      -0.0558
     21 NAV       -14.0823   -8.6925   11.4064 N.am        1 SU3      -0.2737
     22 CAX       -14.2095   -7.2632   11.2534 C.3         1 SU3       0.1374
     23 CAY       -14.0406   -6.5578   12.5104 C.2         1 SU3       0.2444
     24 CAZ       -13.8032   -6.5392    9.9389 C.3         1 SU3      -0.0066
     25 CBA       -15.2939   -6.6745   10.3165 C.3         1 SU3      -0.0152
     26 CBB       -13.5173  -13.9265   17.2577 C.2         1 SU3       0.0383
     27 CBC       -13.2508  -15.2583   17.5602 C.ar        1 SU3      -0.0374
     28 CBD       -12.6348  -15.8193   16.4427 C.ar        1 SU3      -0.0293
     29 CBE       -12.5184  -14.7947   15.5100 C.2         1 SU3       0.0366
     30 CBF       -13.5002  -16.0296   18.7070 C.ar        1 SU3      -0.0689
     31 CBG       -13.1013  -17.3821   18.7105 C.ar        1 SU3      -0.0688
     32 CBH       -12.4946  -17.9524   17.5693 C.ar        1 SU3      -0.0606
     33 CBI       -12.2611  -17.1820   16.3999 C.ar        1 SU3      -0.0432
     34 CBJ       -11.6596  -17.7798   15.1756 C.3         1 SU3      -0.0194
     35 NBK       -12.8359   -6.1565   12.8715 N.am        1 SU3      -0.1552
     36 OBL       -15.0150   -6.4412   13.2529 O.2         1 SU3      -0.3404
     37 SBM       -12.4665   -5.3207   14.2875 S.o2        1 SU3       0.0645
     38 CBN       -12.0770   -6.2825   15.7661 C.3         1 SU3       0.1004
     39 OBO       -11.1600   -4.4870   13.9338 O.2         1 SU3      -0.1503
     40 OBP       -13.5383   -4.1789   14.5900 O.2         1 SU3      -0.1503
     41 CBQ       -13.1605   -7.2144   16.3304 C.3         1 SU3      -0.0268
     42 CBR       -11.9408   -7.8049   15.6174 C.3         1 SU3      -0.0268
     43 CBS       -12.6932  -17.9589   14.0264 C.3         1 SU3      -0.0433
     44 CBT       -12.1147  -18.5917   12.7294 C.3         1 SU3      -0.0507
     45 CBU       -11.1911  -17.6495   11.8978 C.3         1 SU3      -0.0453
     46 CBV       -10.5743  -18.2258   10.5673 C.3         1 SU3      -0.0072
     47 CBW        -9.6671  -17.1300    9.9052 C.3         1 SU3       0.0824
     48 CBX        -9.6726  -19.4705   10.8692 C.3         1 SU3      -0.0574
     49 CBY       -11.6892  -18.6388    9.5517 C.3         1 SU3      -0.0574
     50 CBZ       -10.5476  -10.1646    7.8281 C.3         1 SU3      -0.0558
     51 CCA        -8.8672  -12.0508    7.6976 C.3         1 SU3      -0.0558
     52 CD1       -11.9449  -11.7014   11.8508 C.3         1 SU3       0.0677
     53 OD2       -12.6804  -12.4302   14.0639 O.3         1 SU3      -0.2338
     54 H1        -14.8517  -11.7086   10.4900 H           1 SU3       0.0803
     55 H2        -14.7097  -12.3784   12.6323 H           1 SU3       0.0342
     56 H3        -14.9001  -10.6645   13.0200 H           1 SU3       0.0342
     57 H4        -12.5632  -10.4226   13.4983 H           1 SU3       0.0673
     58 H5        -10.3407  -12.1014    9.8759 H           1 SU3       0.0805
     59 H6        -11.6390  -14.2087    8.3136 H           1 SU3       0.1899
     60 H7        -13.6251   -4.4720   10.6952 H           1 SU3       0.0265
     61 H8        -12.1695   -5.1233    9.9281 H           1 SU3       0.0265
     62 H9        -13.2194   -3.3991    8.4936 H           1 SU3       0.0230
     63 H10       -14.7450   -4.3055    8.4663 H           1 SU3       0.0230
     64 H11       -13.2951   -4.9759    7.6821 H           1 SU3       0.0230
     65 H12       -10.5389  -11.8016    5.5671 H           1 SU3       0.0237
     66 H13       -12.0969  -11.9613    6.3623 H           1 SU3       0.0237
     67 H14       -10.9677  -13.3212    6.3528 H           1 SU3       0.0237
     68 H15       -13.8497   -8.9544   12.3092 H           1 SU3       0.1839
     69 H16       -13.5036   -7.1989    9.1219 H           1 SU3       0.0312
     70 H17       -15.7836   -5.7470   10.6359 H           1 SU3       0.0279
     71 H18       -15.8572   -7.3576    9.6802 H           1 SU3       0.0279
     72 H19       -13.9838  -13.2675   17.8859 H           1 SU3       0.0373
     73 H20       -12.0974  -14.8966   14.5834 H           1 SU3       0.0361
     74 H21       -13.9616  -15.6238   19.5226 H           1 SU3       0.0557
     75 H22       -13.2653  -17.9540   19.5430 H           1 SU3       0.0599
     76 H23       -12.2392  -18.9421   17.5934 H           1 SU3       0.0557
     77 H24       -11.2345  -18.7602   15.4006 H           1 SU3       0.0426
     78 H25       -10.8347  -17.1421   14.8526 H           1 SU3       0.0426
     79 H26       -12.1022   -6.3215   12.2566 H           1 SU3       0.2148
     80 H27       -11.4372   -5.8273   16.5296 H           1 SU3       0.0559
     81 H28       -14.1037   -7.2758   15.7830 H           1 SU3       0.0285
     82 H29       -13.1661   -7.3328   17.4173 H           1 SU3       0.0285
     83 H30       -11.2022   -8.2801   16.2661 H           1 SU3       0.0285
     84 H31       -12.1355   -8.2302   14.6306 H           1 SU3       0.0285
     85 H32       -13.1532  -17.0019   13.7724 H           1 SU3       0.0287
     86 H33       -13.4904  -18.6134   14.3912 H           1 SU3       0.0287
     87 H34       -12.9624  -18.8863   12.1062 H           1 SU3       0.0267
     88 H35       -11.5756  -19.5009   13.0033 H           1 SU3       0.0267
     89 H36       -10.3682  -17.3324   12.5418 H           1 SU3       0.0271
     90 H37       -11.7674  -16.7521   11.6550 H           1 SU3       0.0271
     91 H38        -8.9100  -16.7943   10.6203 H           1 SU3       0.0617
     92 H39        -9.1285  -17.5583    9.0551 H           1 SU3       0.0617
     93 H40       -10.2622  -20.3080   11.2430 H           1 SU3       0.0236
     94 H41        -8.9132  -19.2257   11.6153 H           1 SU3       0.0236
     95 H42        -9.1628  -19.8106    9.9650 H           1 SU3       0.0236
     96 H43       -12.3852  -17.8140    9.3833 H           1 SU3       0.0236
     97 H44       -12.2599  -19.4941    9.9152 H           1 SU3       0.0236
     98 H45       -11.2529  -18.9169    8.5896 H           1 SU3       0.0236
     99 H46       -10.0958   -9.7694    8.7410 H           1 SU3       0.0237
    100 H47       -11.5987   -9.8703    7.8146 H           1 SU3       0.0237
    101 H48       -10.0600   -9.6904    6.9729 H           1 SU3       0.0237
    102 H49        -8.6982  -13.1287    7.6301 H           1 SU3       0.0237
    103 H50        -8.3441  -11.6826    8.5851 H           1 SU3       0.0237
    104 H51        -8.4019  -11.5860    6.8232 H           1 SU3       0.0237
    105 H52       -11.1124  -10.9953   11.8020 H           1 SU3       0.0553
    106 H53       -11.5486  -12.7196   11.9191 H           1 SU3       0.0553
@<TRIPOS>BOND
     1     1     3   2
     2     1     4   1
     3    21     1  am
     4     4     2   1
     5     2     7  am
     6     2    52   1
     7     4     5   1
     8     5     6   1
     9     6    52   1
    10     6    53   1
    11     7     8   2
    12     7     9   1
    13     9    10   1
    14     9    13   1
    15    10    11  am
    16    11    12   1
    17    11    14   2
    18    12    47   1
    19    13    20   1
    20    13    50   1
    21    13    51   1
    22    15    16   2
    23    15    17  am
    24    53    15   1
    25    17    26   1
    26    17    29   1
    27    18    19   1
    28    24    18   1
    29    22    21   1
    30    22    23   1
    31    22    24   1
    32    22    25   1
    33    23    35  am
    34    23    36   2
    35    24    25   1
    36    26    27   2
    37    27    28  ar
    38    27    30  ar
    39    28    29   2
    40    28    33  ar
    41    30    31  ar
    42    31    32  ar
    43    32    33  ar
    44    33    34   1
    45    34    43   1
    46    35    37  am
    47    37    38   1
    48    37    39   2
    49    37    40   2
    50    38    41   1
    51    38    42   1
    52    41    42   1
    53    43    44   1
    54    44    45   1
    55    45    46   1
    56    46    47   1
    57    46    48   1
    58    46    49   1
    59     4    54   1
    60     5    55   1
    61     5    56   1
    62     6    57   1
    63     9    58   1
    64    10    59   1
    65    18    60   1
    66    18    61   1
    67    19    62   1
    68    19    63   1
    69    19    64   1
    70    20    65   1
    71    20    66   1
    72    20    67   1
    73    21    68   1
    74    24    69   1
    75    25    70   1
    76    25    71   1
    77    26    72   1
    78    29    73   1
    79    30    74   1
    80    31    75   1
    81    32    76   1
    82    34    77   1
    83    34    78   1
    84    35    79   1
    85    38    80   1
    86    41    81   1
    87    41    82   1
    88    42    83   1
    89    42    84   1
    90    43    85   1
    91    43    86   1
    92    44    87   1
    93    44    88   1
    94    45    89   1
    95    45    90   1
    96    47    91   1
    97    47    92   1
    98    48    93   1
    99    48    94   1
   100    48    95   1
   101    49    96   1
   102    49    97   1
   103    49    98   1
   104    50    99   1
   105    50   100   1
   106    50   101   1
   107    51   102   1
   108    51   103   1
   109    51   104   1
   110    52   105   1
   111    52   106   1
@<TRIPOS>SUBSTRUCTURE
     1  SU3      1

