@<TRIPOS>MOLECULE
3su5_ligand_010
   106   111
SMALL
GAST_HUCK
****
This file was generated by PARSER (from files_GN.cpp)

@<TRIPOS>ATOM
      1 C         -11.9461   -5.5876   12.1709 C.2         1 SU3       0.2013
      2 N         -10.2415   -5.3759   10.4851 N.am        1 SU3      -0.2469
      3 O         -11.8058   -6.7978   12.3362 O.2         1 SU3      -0.3947
      4 CA        -11.5858   -5.0197   10.8762 C.3         1 SU3       0.1363
      5 CB        -12.5174   -5.5239    9.7473 C.3         1 SU3       0.0206
      6 CG        -11.5817   -5.8916    8.5813 C.3         1 SU3       0.1158
      7 CAF        -9.1588   -5.0551   11.2214 C.2         1 SU3       0.2070
      8 OAG        -9.2988   -4.2191   12.1082 O.2         1 SU3      -0.3942
      9 CAH        -7.8053   -5.6046   11.0504 C.3         1 SU3       0.1378
     10 NAI        -6.9137   -4.5124   10.7590 N.am        1 SU3      -0.2407
     11 CAJ        -6.3412   -4.2540    9.5585 C.2         1 SU3       0.3218
     12 OAK        -5.4902   -3.1957    9.4623 O.3         1 SU3      -0.2633
     13 CAL        -7.3010   -6.5272   12.2532 C.3         1 SU3       0.0025
     14 OAM        -6.5613   -5.0305    8.4739 O.2         1 SU3      -0.3774
     15 CAO       -12.4013   -4.4022    6.7270 C.2         1 SU3       0.4317
     16 OAP       -13.6328   -4.9662    6.7341 O.2         1 SU3      -0.3166
     17 NAQ       -12.0862   -3.4516    5.8103 N.am        1 SU3      -0.2080
     18 CAR       -11.9352   -7.0133   16.3477 C.3         1 SU3      -0.0516
     19 CAS       -11.8982   -6.6332   17.8431 C.3         1 SU3      -0.0651
     20 CAT        -5.7922   -6.8696   12.0504 C.3         1 SU3      -0.0558
     21 NAV       -12.4218   -4.8217   13.1426 N.am        1 SU3      -0.2737
     22 CAX       -12.8418   -5.3031   14.4277 C.3         1 SU3       0.1374
     23 CAY       -14.1982   -5.8445   14.5245 C.2         1 SU3       0.2444
     24 CAZ       -11.7090   -5.8358   15.3506 C.3         1 SU3      -0.0066
     25 CBA       -12.3073   -4.4406   15.5912 C.3         1 SU3      -0.0152
     26 CBB       -12.9084   -2.9626    4.8548 C.2         1 SU3       0.0383
     27 CBC       -12.2005   -2.0553    4.0720 C.ar        1 SU3      -0.0374
     28 CBD       -10.9083   -1.9864    4.5889 C.ar        1 SU3      -0.0293
     29 CBE       -10.8752   -2.8637    5.6690 C.2         1 SU3       0.0366
     30 CBF       -12.5801   -1.3108    2.9466 C.ar        1 SU3      -0.0689
     31 CBG       -11.6155   -0.4844    2.3343 C.ar        1 SU3      -0.0688
     32 CBH       -10.3040   -0.4113    2.8544 C.ar        1 SU3      -0.0606
     33 CBI        -9.9218   -1.1572    3.9981 C.ar        1 SU3      -0.0432
     34 CBJ        -8.5383   -1.0861    4.5409 C.3         1 SU3      -0.0194
     35 NBK       -14.6429   -6.6310   13.5528 N.am        1 SU3      -0.1552
     36 OBL       -14.9048   -5.5841   15.4885 O.2         1 SU3      -0.3404
     37 SBM       -16.1308   -7.4191   13.5366 S.o2        1 SU3       0.0645
     38 CBN       -17.5616   -6.4942   12.9222 C.3         1 SU3       0.1004
     39 OBO       -15.9334   -8.6614   12.5657 O.2         1 SU3      -0.1503
     40 OBP       -16.3737   -8.1073   14.9466 O.2         1 SU3      -0.1503
     41 CBQ       -18.7326   -6.2737   13.8941 C.3         1 SU3      -0.0268
     42 CBR       -17.8418   -5.0949   13.4887 C.3         1 SU3      -0.0268
     43 CBS        -8.4607   -0.2631    5.8574 C.3         1 SU3      -0.0433
     44 CBT        -7.0309   -0.1314    6.4556 C.3         1 SU3      -0.0507
     45 CBU        -6.4722   -1.4394    7.0977 C.3         1 SU3      -0.0453
     46 CBV        -5.0486   -1.3788    7.7695 C.3         1 SU3      -0.0072
     47 CBW        -4.6902   -2.7980    8.3351 C.3         1 SU3       0.0824
     48 CBX        -3.9607   -0.9940    6.7124 C.3         1 SU3      -0.0574
     49 CBY        -5.0051   -0.3427    8.9390 C.3         1 SU3      -0.0574
     50 CBZ        -7.4529   -5.8662   13.6650 C.3         1 SU3      -0.0558
     51 CCA        -8.1002   -7.8759   12.2399 C.3         1 SU3      -0.0558
     52 CD1       -10.2203   -6.1230    9.2609 C.3         1 SU3       0.0677
     53 OD2       -11.4605   -4.8432    7.6055 O.3         1 SU3      -0.2338
     54 H1        -11.6537   -3.9262   10.9067 H           1 SU3       0.0803
     55 H2        -13.2362   -4.7480    9.4650 H           1 SU3       0.0342
     56 H3        -13.0815   -6.4150   10.0380 H           1 SU3       0.0342
     57 H4        -11.9127   -6.8040    8.0775 H           1 SU3       0.0673
     58 H5         -7.8114   -6.2682   10.1866 H           1 SU3       0.0805
     59 H6         -6.6623   -3.9350   11.4993 H           1 SU3       0.1899
     60 H7        -12.8744   -7.5417   16.1539 H           1 SU3       0.0265
     61 H8        -11.1372   -7.7358   16.1618 H           1 SU3       0.0265
     62 H9        -11.7064   -7.5246   18.4417 H           1 SU3       0.0230
     63 H10       -12.8568   -6.2162   18.1467 H           1 SU3       0.0230
     64 H11       -11.1118   -5.9047   18.0441 H           1 SU3       0.0230
     65 H12        -5.4512   -7.5856   12.8076 H           1 SU3       0.0237
     66 H13        -5.1750   -5.9703   12.1398 H           1 SU3       0.0237
     67 H14        -5.6159   -7.3102   11.0713 H           1 SU3       0.0237
     68 H15       -12.5372   -3.8762   12.9569 H           1 SU3       0.1839
     69 H16       -10.7026   -5.7743   14.9225 H           1 SU3       0.0312
     70 H17       -12.9224   -4.3378   16.4902 H           1 SU3       0.0279
     71 H18       -11.6392   -3.6180   15.3365 H           1 SU3       0.0279
     72 H19       -13.8857   -3.2255    4.6991 H           1 SU3       0.0373
     73 H20       -10.0503   -3.0522    6.2439 H           1 SU3       0.0361
     74 H21       -13.5273   -1.3749    2.5693 H           1 SU3       0.0557
     75 H22       -11.8659    0.0576    1.5054 H           1 SU3       0.0599
     76 H23        -9.6254    0.1947    2.3854 H           1 SU3       0.0557
     77 H24        -7.8690   -0.6276    3.8087 H           1 SU3       0.0426
     78 H25        -8.1778   -2.1028    4.7066 H           1 SU3       0.0426
     79 H26       -14.0583   -6.7868   12.7994 H           1 SU3       0.2148
     80 H27       -17.8353   -6.6076   11.8716 H           1 SU3       0.0559
     81 H28       -18.6079   -6.5711   14.9368 H           1 SU3       0.0285
     82 H29       -19.7330   -6.2618   13.4599 H           1 SU3       0.0285
     83 H30       -18.3274   -4.3867   12.8184 H           1 SU3       0.0285
     84 H31       -17.1820   -4.7229   14.2750 H           1 SU3       0.0285
     85 H32        -9.1191   -0.6963    6.6119 H           1 SU3       0.0287
     86 H33        -8.8285    0.7457    5.6456 H           1 SU3       0.0287
     87 H34        -7.0698    0.6449    7.2222 H           1 SU3       0.0267
     88 H35        -6.3586    0.2159    5.6682 H           1 SU3       0.0267
     89 H36        -6.4476   -2.2072    6.3227 H           1 SU3       0.0271
     90 H37        -7.1912   -1.7683    7.8503 H           1 SU3       0.0271
     91 H38        -4.7564   -3.5419    7.5359 H           1 SU3       0.0617
     92 H39        -3.6533   -2.8085    8.6817 H           1 SU3       0.0617
     93 H40        -4.1095    0.0202    6.3401 H           1 SU3       0.0236
     94 H41        -3.9874   -1.6792    5.8613 H           1 SU3       0.0236
     95 H42        -2.9592   -1.0366    7.1505 H           1 SU3       0.0236
     96 H43        -5.8141   -0.5242    9.6503 H           1 SU3       0.0236
     97 H44        -5.1045    0.6789    8.5665 H           1 SU3       0.0236
     98 H45        -4.0563   -0.4073    9.4779 H           1 SU3       0.0236
     99 H46        -8.4976   -5.7534   13.9370 H           1 SU3       0.0237
    100 H47        -6.9735   -4.8861   13.6970 H           1 SU3       0.0237
    101 H48        -6.9959   -6.4969   14.4409 H           1 SU3       0.0237
    102 H49        -7.9453   -8.4159   11.3000 H           1 SU3       0.0237
    103 H50        -9.1715   -7.7069   12.3632 H           1 SU3       0.0237
    104 H51        -7.7779   -8.5276   13.0582 H           1 SU3       0.0237
    105 H52       -10.0757   -7.1853    9.4825 H           1 SU3       0.0553
    106 H53        -9.4238   -5.7892    8.5901 H           1 SU3       0.0553
@<TRIPOS>BOND
     1     1     3   2
     2     1     4   1
     3    21     1  am
     4     4     2   1
     5     2     7  am
     6     2    52   1
     7     4     5   1
     8     5     6   1
     9     6    52   1
    10     6    53   1
    11     7     8   2
    12     7     9   1
    13     9    10   1
    14     9    13   1
    15    10    11  am
    16    11    12   1
    17    11    14   2
    18    12    47   1
    19    13    20   1
    20    13    50   1
    21    13    51   1
    22    15    16   2
    23    15    17  am
    24    53    15   1
    25    17    26   1
    26    17    29   1
    27    18    19   1
    28    24    18   1
    29    22    21   1
    30    22    23   1
    31    22    24   1
    32    22    25   1
    33    23    35  am
    34    23    36   2
    35    24    25   1
    36    26    27   2
    37    27    28  ar
    38    27    30  ar
    39    28    29   2
    40    28    33  ar
    41    30    31  ar
    42    31    32  ar
    43    32    33  ar
    44    33    34   1
    45    34    43   1
    46    35    37  am
    47    37    38   1
    48    37    39   2
    49    37    40   2
    50    38    41   1
    51    38    42   1
    52    41    42   1
    53    43    44   1
    54    44    45   1
    55    45    46   1
    56    46    47   1
    57    46    48   1
    58    46    49   1
    59     4    54   1
    60     5    55   1
    61     5    56   1
    62     6    57   1
    63     9    58   1
    64    10    59   1
    65    18    60   1
    66    18    61   1
    67    19    62   1
    68    19    63   1
    69    19    64   1
    70    20    65   1
    71    20    66   1
    72    20    67   1
    73    21    68   1
    74    24    69   1
    75    25    70   1
    76    25    71   1
    77    26    72   1
    78    29    73   1
    79    30    74   1
    80    31    75   1
    81    32    76   1
    82    34    77   1
    83    34    78   1
    84    35    79   1
    85    38    80   1
    86    41    81   1
    87    41    82   1
    88    42    83   1
    89    42    84   1
    90    43    85   1
    91    43    86   1
    92    44    87   1
    93    44    88   1
    94    45    89   1
    95    45    90   1
    96    47    91   1
    97    47    92   1
    98    48    93   1
    99    48    94   1
   100    48    95   1
   101    49    96   1
   102    49    97   1
   103    49    98   1
   104    50    99   1
   105    50   100   1
   106    50   101   1
   107    51   102   1
   108    51   103   1
   109    51   104   1
   110    52   105   1
   111    52   106   1
@<TRIPOS>SUBSTRUCTURE
     1  SU3      1

