@<TRIPOS>MOLECULE
3su5_ligand_054
   106   111
SMALL
GAST_HUCK
****
This file was generated by PARSER (from files_GN.cpp)

@<TRIPOS>ATOM
      1 C         -14.1501   -8.1588   12.1354 C.2         1 SU3       0.2013
      2 N         -15.4931   -9.7667   13.2554 N.am        1 SU3      -0.2469
      3 O         -13.7134   -8.4696   11.0322 O.2         1 SU3      -0.3947
      4 CA        -14.1943   -9.1357   13.2288 C.3         1 SU3       0.1363
      5 CB        -13.1812  -10.3058   13.1285 C.3         1 SU3       0.0206
      6 CG        -13.9830  -11.5150   12.5976 C.3         1 SU3       0.1158
      7 CAF       -16.6038   -9.1722   13.7375 C.2         1 SU3       0.2070
      8 OAG       -16.4619   -8.1896   14.4580 O.2         1 SU3      -0.3942
      9 CAH       -17.9880   -9.6334   13.5209 C.3         1 SU3       0.1378
     10 NAI       -18.5405   -9.9840   14.7988 N.am        1 SU3      -0.2407
     11 CAJ       -18.9733  -11.2135   15.1541 C.2         1 SU3       0.3218
     12 OAK       -19.4945  -11.3556   16.3981 O.3         1 SU3      -0.2633
     13 CAL       -18.9285   -8.6496   12.7099 C.3         1 SU3       0.0025
     14 OAM       -18.9383  -12.2657   14.2997 O.2         1 SU3      -0.3774
     15 CAO       -12.7340  -13.4828   13.5873 C.2         1 SU3       0.4317
     16 OAP       -11.6288  -13.2823   12.8312 O.2         1 SU3      -0.3166
     17 NAQ       -12.7820  -14.4682   14.5178 N.am        1 SU3      -0.2080
     18 CAR       -14.4152   -3.1768   11.4329 C.3         1 SU3      -0.0516
     19 CAS       -14.9983   -2.4197   12.6420 C.3         1 SU3      -0.0651
     20 CAT       -18.3748   -8.4699   11.2575 C.3         1 SU3      -0.0558
     21 NAV       -14.6593   -6.9496   12.3347 N.am        1 SU3      -0.2737
     22 CAX       -14.7323   -5.9035   11.3639 C.3         1 SU3       0.1374
     23 CAY       -15.9889   -5.7271   10.6616 C.2         1 SU3       0.2444
     24 CAZ       -13.9949   -4.6198   11.8289 C.3         1 SU3      -0.0066
     25 CBA       -13.4200   -5.4671   10.6806 C.3         1 SU3      -0.0152
     26 CBB       -11.8043  -15.3568   14.8091 C.2         1 SU3       0.0383
     27 CBC       -12.2427  -16.1825   15.8392 C.ar        1 SU3      -0.0374
     28 CBD       -13.5263  -15.7666   16.1872 C.ar        1 SU3      -0.0293
     29 CBE       -13.8319  -14.7091   15.3377 C.2         1 SU3       0.0366
     30 CBF       -11.6219  -17.2526   16.5041 C.ar        1 SU3      -0.0689
     31 CBG       -12.3293  -17.8989   17.5368 C.ar        1 SU3      -0.0688
     32 CBH       -13.6298  -17.4766   17.8927 C.ar        1 SU3      -0.0606
     33 CBI       -14.2548  -16.3919   17.2264 C.ar        1 SU3      -0.0432
     34 CBJ       -15.6135  -15.9213   17.6166 C.3         1 SU3      -0.0194
     35 NBK       -16.1031   -6.1770    9.4250 N.am        1 SU3      -0.1552
     36 OBL       -16.9204   -5.1959   11.2512 O.2         1 SU3      -0.3404
     37 SBM       -17.4315   -5.9673    8.4043 S.o2        1 SU3       0.0645
     38 CBN       -17.2088   -4.7499    7.0842 C.3         1 SU3       0.1004
     39 OBO       -17.7183   -7.3812    7.7332 O.2         1 SU3      -0.1503
     40 OBP       -18.7752   -5.6299    9.1891 O.2         1 SU3      -0.1503
     41 CBQ       -17.0351   -3.2879    7.5164 C.3         1 SU3      -0.0268
     42 CBR       -15.8456   -4.0603    6.9289 C.3         1 SU3      -0.0268
     43 CBS       -15.5664  -14.5879   18.4157 C.3         1 SU3      -0.0433
     44 CBT       -16.9490  -14.0846   18.9188 C.3         1 SU3      -0.0507
     45 CBU       -17.8781  -13.5161   17.8039 C.3         1 SU3      -0.0453
     46 CBV       -19.3226  -13.0531   18.2322 C.3         1 SU3      -0.0072
     47 CBW       -20.0903  -12.5286   16.9702 C.3         1 SU3       0.0824
     48 CBX       -20.1409  -14.2588   18.8032 C.3         1 SU3      -0.0574
     49 CBY       -19.2688  -11.9159   19.3028 C.3         1 SU3      -0.0574
     50 CBZ       -20.3665   -9.2599   12.5843 C.3         1 SU3      -0.0558
     51 CCA       -19.0685   -7.2362   13.3762 C.3         1 SU3      -0.0558
     52 CD1       -15.4609  -11.0704   12.6603 C.3         1 SU3       0.0677
     53 OD2       -13.8116  -12.6701   13.4312 O.3         1 SU3      -0.2338
     54 H1        -13.9860   -8.6194   14.1775 H           1 SU3       0.0803
     55 H2        -12.7885  -10.5310   14.1285 H           1 SU3       0.0342
     56 H3        -12.3290  -10.0809   12.4816 H           1 SU3       0.0342
     57 H4        -13.7070  -11.7553   11.5647 H           1 SU3       0.0673
     58 H5        -17.9542  -10.5302   12.8967 H           1 SU3       0.0805
     59 H6        -18.6282   -9.2737   15.4583 H           1 SU3       0.1899
     60 H7        -13.5382   -2.6344   11.0769 H           1 SU3       0.0265
     61 H8        -15.1508   -3.1788   10.6245 H           1 SU3       0.0265
     62 H9        -15.3768   -1.4495   12.3146 H           1 SU3       0.0230
     63 H10       -14.2224   -2.2640   13.3957 H           1 SU3       0.0230
     64 H11       -15.8202   -2.9854   13.0878 H           1 SU3       0.0230
     65 H12       -19.0142   -7.7969   10.6816 H           1 SU3       0.0237
     66 H13       -18.3339   -9.4310   10.7339 H           1 SU3       0.0237
     67 H14       -17.3664   -8.0489   11.2795 H           1 SU3       0.0237
     68 H15       -14.9985   -6.7494   13.2203 H           1 SU3       0.1839
     69 H16       -13.3857   -4.7113   12.7323 H           1 SU3       0.0312
     70 H17       -13.5054   -5.0258    9.6745 H           1 SU3       0.0279
     71 H18       -12.5525   -6.0908   10.9179 H           1 SU3       0.0279
     72 H19       -10.8870  -15.4172   14.3601 H           1 SU3       0.0373
     73 H20       -14.7145  -14.1912   15.3487 H           1 SU3       0.0361
     74 H21       -10.6781  -17.5495   16.2503 H           1 SU3       0.0557
     75 H22       -11.8951  -18.6772   18.0361 H           1 SU3       0.0599
     76 H23       -14.1136  -17.9638   18.6517 H           1 SU3       0.0557
     77 H24       -16.1107  -16.6764   18.2319 H           1 SU3       0.0426
     78 H25       -16.2137  -15.8043   16.7123 H           1 SU3       0.0426
     79 H26       -15.3374   -6.6287    9.0435 H           1 SU3       0.2148
     80 H27       -17.7897   -4.8706    6.1677 H           1 SU3       0.0559
     81 H28       -16.9756   -3.0859    8.5867 H           1 SU3       0.0285
     82 H29       -17.4707   -2.5363    6.8536 H           1 SU3       0.0285
     83 H30       -15.5628   -3.7770    5.9116 H           1 SU3       0.0285
     84 H31       -15.0627   -4.3121    7.6449 H           1 SU3       0.0285
     85 H32       -15.1030  -13.8016   17.8163 H           1 SU3       0.0287
     86 H33       -14.9329  -14.7460   19.2927 H           1 SU3       0.0287
     87 H34       -16.7627  -13.2941   19.6504 H           1 SU3       0.0267
     88 H35       -17.4414  -14.9065   19.4402 H           1 SU3       0.0267
     89 H36       -17.9852  -14.2782   17.0287 H           1 SU3       0.0271
     90 H37       -17.3573  -12.6704   17.3463 H           1 SU3       0.0271
     91 H38       -20.1650  -13.3293   16.2295 H           1 SU3       0.0617
     92 H39       -21.1129  -12.2527   17.2399 H           1 SU3       0.0617
     93 H40       -19.7324  -14.6012   19.7544 H           1 SU3       0.0236
     94 H41       -20.1304  -15.0991   18.1051 H           1 SU3       0.0236
     95 H42       -21.1810  -13.9748   18.9732 H           1 SU3       0.0236
     96 H43       -18.6274  -11.0974   18.9669 H           1 SU3       0.0236
     97 H44       -18.8790  -12.2881   20.2518 H           1 SU3       0.0236
     98 H45       -20.2663  -11.5118   19.4925 H           1 SU3       0.0236
     99 H46       -20.8397   -9.3612   13.5648 H           1 SU3       0.0237
    100 H47       -20.3290  -10.2485   12.1212 H           1 SU3       0.0237
    101 H48       -21.0110   -8.6264   11.9676 H           1 SU3       0.0237
    102 H49       -18.1235   -6.6908   13.3566 H           1 SU3       0.0237
    103 H50       -19.3936   -7.3288   14.4143 H           1 SU3       0.0237
    104 H51       -19.8066   -6.6248   12.8464 H           1 SU3       0.0237
    105 H52       -15.8900  -11.0279   11.6538 H           1 SU3       0.0553
    106 H53       -16.0379  -11.7831   13.2576 H           1 SU3       0.0553
@<TRIPOS>BOND
     1     1     3   2
     2     1     4   1
     3    21     1  am
     4     4     2   1
     5     2     7  am
     6     2    52   1
     7     4     5   1
     8     5     6   1
     9     6    52   1
    10     6    53   1
    11     7     8   2
    12     7     9   1
    13     9    10   1
    14     9    13   1
    15    10    11  am
    16    11    12   1
    17    11    14   2
    18    12    47   1
    19    13    20   1
    20    13    50   1
    21    13    51   1
    22    15    16   2
    23    15    17  am
    24    53    15   1
    25    17    26   1
    26    17    29   1
    27    18    19   1
    28    24    18   1
    29    22    21   1
    30    22    23   1
    31    22    24   1
    32    22    25   1
    33    23    35  am
    34    23    36   2
    35    24    25   1
    36    26    27   2
    37    27    28  ar
    38    27    30  ar
    39    28    29   2
    40    28    33  ar
    41    30    31  ar
    42    31    32  ar
    43    32    33  ar
    44    33    34   1
    45    34    43   1
    46    35    37  am
    47    37    38   1
    48    37    39   2
    49    37    40   2
    50    38    41   1
    51    38    42   1
    52    41    42   1
    53    43    44   1
    54    44    45   1
    55    45    46   1
    56    46    47   1
    57    46    48   1
    58    46    49   1
    59     4    54   1
    60     5    55   1
    61     5    56   1
    62     6    57   1
    63     9    58   1
    64    10    59   1
    65    18    60   1
    66    18    61   1
    67    19    62   1
    68    19    63   1
    69    19    64   1
    70    20    65   1
    71    20    66   1
    72    20    67   1
    73    21    68   1
    74    24    69   1
    75    25    70   1
    76    25    71   1
    77    26    72   1
    78    29    73   1
    79    30    74   1
    80    31    75   1
    81    32    76   1
    82    34    77   1
    83    34    78   1
    84    35    79   1
    85    38    80   1
    86    41    81   1
    87    41    82   1
    88    42    83   1
    89    42    84   1
    90    43    85   1
    91    43    86   1
    92    44    87   1
    93    44    88   1
    94    45    89   1
    95    45    90   1
    96    47    91   1
    97    47    92   1
    98    48    93   1
    99    48    94   1
   100    48    95   1
   101    49    96   1
   102    49    97   1
   103    49    98   1
   104    50    99   1
   105    50   100   1
   106    50   101   1
   107    51   102   1
   108    51   103   1
   109    51   104   1
   110    52   105   1
   111    52   106   1
@<TRIPOS>SUBSTRUCTURE
     1  SU3      1

