@<TRIPOS>MOLECULE
3su5_ligand_068
   106   111
SMALL
GAST_HUCK
****
This file was generated by PARSER (from files_GN.cpp)

@<TRIPOS>ATOM
      1 C         -11.6104   -9.3172   10.9412 C.2         1 SU3       0.2013
      2 N         -12.6423  -11.5378   11.0350 N.am        1 SU3      -0.2469
      3 O         -12.6785   -8.7261   10.9232 O.2         1 SU3      -0.3947
      4 CA        -11.5803  -10.7141   10.4999 C.3         1 SU3       0.1363
      5 CB        -11.7294  -10.7831    8.9617 C.3         1 SU3       0.0206
      6 CG        -12.5636  -12.0500    8.7207 C.3         1 SU3       0.1158
      7 CAF       -12.8360  -11.7419   12.3530 C.2         1 SU3       0.2070
      8 OAG       -11.9478  -11.3643   13.1098 O.2         1 SU3      -0.3942
      9 CAH       -13.9918  -12.4083   12.9887 C.3         1 SU3       0.1378
     10 NAI       -13.4864  -13.5172   13.7556 N.am        1 SU3      -0.2407
     11 CAJ       -13.7402  -14.8302   13.5468 C.2         1 SU3       0.3218
     12 OAK       -13.2132  -15.7106   14.4350 O.3         1 SU3      -0.2633
     13 CAL       -14.9158  -11.4585   13.8639 C.3         1 SU3       0.0025
     14 OAM       -14.4951  -15.2642   12.5071 O.2         1 SU3      -0.3774
     15 CAO       -10.9103  -13.5454    7.5587 C.2         1 SU3       0.4317
     16 OAP       -10.7786  -12.6924    6.5124 O.2         1 SU3      -0.3166
     17 NAQ       -10.2402  -14.7252    7.5710 N.am        1 SU3      -0.2080
     18 CAR        -8.4080   -5.9005   12.8913 C.3         1 SU3      -0.0516
     19 CAS        -6.8808   -5.8498   13.1103 C.3         1 SU3      -0.0651
     20 CAT       -14.1197  -10.5000   14.8148 C.3         1 SU3      -0.0558
     21 NAV       -10.4741   -8.6983   11.2328 N.am        1 SU3      -0.2737
     22 CAX       -10.2987   -7.3054   11.5509 C.3         1 SU3       0.1374
     23 CAY       -11.2945   -6.6353   12.3810 C.2         1 SU3       0.2444
     24 CAZ        -8.8120   -6.9546   11.8166 C.3         1 SU3      -0.0066
     25 CBA        -9.4992   -6.4718   10.5331 C.3         1 SU3      -0.0152
     26 CBB        -9.3935  -15.1695    6.6143 C.2         1 SU3       0.0383
     27 CBC        -8.9385  -16.4333    6.9667 C.ar        1 SU3      -0.0374
     28 CBD        -9.5282  -16.7583    8.1886 C.ar        1 SU3      -0.0293
     29 CBE       -10.3259  -15.6735    8.5337 C.2         1 SU3       0.0366
     30 CBF        -8.0740  -17.3225    6.3117 C.ar        1 SU3      -0.0689
     31 CBG        -7.8112  -18.5690    6.9143 C.ar        1 SU3      -0.0688
     32 CBH        -8.4088  -18.9052    8.1502 C.ar        1 SU3      -0.0606
     33 CBI        -9.2788  -18.0045    8.8161 C.ar        1 SU3      -0.0432
     34 CBJ        -9.9120  -18.3635   10.1122 C.3         1 SU3      -0.0194
     35 NBK       -11.4840   -7.0823   13.6127 N.am        1 SU3      -0.1552
     36 OBL       -12.0356   -5.8179   11.8620 O.2         1 SU3      -0.3404
     37 SBM       -12.7307   -6.5872   14.6353 S.o2        1 SU3       0.0645
     38 CBN       -12.2072   -6.8515   16.3434 C.3         1 SU3       0.1004
     39 OBO       -13.0824   -5.0491   14.4170 O.2         1 SU3      -0.1503
     40 OBP       -14.0400   -7.4272   14.3372 O.2         1 SU3      -0.1503
     41 CBQ       -11.9283   -5.6421   17.2524 C.3         1 SU3      -0.0268
     42 CBR       -13.2067   -6.4659   17.4450 C.3         1 SU3      -0.0268
     43 CBS        -9.2492  -17.6364   11.3163 C.3         1 SU3      -0.0433
     44 CBT        -9.8243  -18.0380   12.7022 C.3         1 SU3      -0.0507
     45 CBU       -11.2490  -17.4779   12.9990 C.3         1 SU3      -0.0453
     46 CBV       -11.8978  -17.8253   14.3902 C.3         1 SU3      -0.0072
     47 CBW       -13.3105  -17.1452   14.4655 C.3         1 SU3       0.0824
     48 CBX       -12.0910  -19.3699   14.5461 C.3         1 SU3      -0.0574
     49 CBY       -11.0244  -17.3036   15.5785 C.3         1 SU3      -0.0574
     50 CBZ       -15.8159  -10.5864   12.9240 C.3         1 SU3      -0.0558
     51 CCA       -15.8712  -12.3183   14.7626 C.3         1 SU3      -0.0558
     52 CD1       -13.4160  -12.1547    9.9984 C.3         1 SU3       0.0677
     53 OD2       -11.7483  -13.2238    8.5822 O.3         1 SU3      -0.2338
     54 H1        -10.6258  -11.1806   10.7767 H           1 SU3       0.0803
     55 H2        -10.7506  -10.8228    8.4731 H           1 SU3       0.0342
     56 H3        -12.2770   -9.9246    8.5547 H           1 SU3       0.0342
     57 H4        -13.2046  -11.9488    7.8414 H           1 SU3       0.0673
     58 H5        -14.6436  -12.8016   12.2140 H           1 SU3       0.0805
     59 H6        -12.9258  -13.3008   14.5192 H           1 SU3       0.1899
     60 H7         -8.7561   -4.9015   12.6177 H           1 SU3       0.0265
     61 H8         -8.8729   -6.1722   13.8400 H           1 SU3       0.0265
     62 H9         -6.6477   -5.0886   13.8522 H           1 SU3       0.0230
     63 H10        -6.3720   -5.6066   12.1759 H           1 SU3       0.0230
     64 H11        -6.5201   -6.8153   13.4724 H           1 SU3       0.0230
     65 H12       -14.7975   -9.9072   15.4294 H           1 SU3       0.0237
     66 H13       -13.5118   -9.7986   14.2449 H           1 SU3       0.0237
     67 H14       -13.4600  -11.0635   15.4745 H           1 SU3       0.0237
     68 H15        -9.6656   -9.2256   11.1747 H           1 SU3       0.1839
     69 H16        -8.1075   -7.7717   11.6408 H           1 SU3       0.0312
     70 H17        -9.7392   -5.4051   10.4708 H           1 SU3       0.0279
     71 H18        -9.2090   -6.9905    9.6180 H           1 SU3       0.0279
     72 H19        -9.1337  -14.6741    5.7560 H           1 SU3       0.0373
     73 H20       -10.9037  -15.6156    9.3764 H           1 SU3       0.0361
     74 H21        -7.6497  -17.0773    5.4157 H           1 SU3       0.0557
     75 H22        -7.1873  -19.2347    6.4532 H           1 SU3       0.0599
     76 H23        -8.1977  -19.8183    8.5631 H           1 SU3       0.0557
     77 H24        -9.8403  -19.4418   10.2797 H           1 SU3       0.0426
     78 H25       -10.9752  -18.1222   10.0604 H           1 SU3       0.0426
     79 H26       -10.9045   -7.7959   13.9286 H           1 SU3       0.2148
     80 H27       -11.6343   -7.7557   16.5685 H           1 SU3       0.0559
     81 H28       -12.0891   -4.6424   16.8447 H           1 SU3       0.0285
     82 H29       -11.1720   -5.7834   18.0265 H           1 SU3       0.0285
     83 H30       -13.2098   -7.0884   18.3415 H           1 SU3       0.0285
     84 H31       -14.1281   -5.9622   17.1426 H           1 SU3       0.0285
     85 H32        -9.3332  -16.5534   11.1951 H           1 SU3       0.0287
     86 H33        -8.1824  -17.8822   11.3137 H           1 SU3       0.0287
     87 H34        -9.1360  -17.6608   13.4616 H           1 SU3       0.0267
     88 H35        -9.8298  -19.1263   12.7708 H           1 SU3       0.0267
     89 H36       -11.9211  -17.8323   12.2137 H           1 SU3       0.0271
     90 H37       -11.1913  -16.3900   12.8994 H           1 SU3       0.0271
     91 H38       -13.9454  -17.5115   13.6536 H           1 SU3       0.0617
     92 H39       -13.8060  -17.4107   15.4034 H           1 SU3       0.0617
     93 H40       -11.1315  -19.8878   14.5711 H           1 SU3       0.0236
     94 H41       -12.6735  -19.7744   13.7153 H           1 SU3       0.0236
     95 H42       -12.6136  -19.6065   15.4756 H           1 SU3       0.0236
     96 H43       -10.8177  -16.2380   15.4623 H           1 SU3       0.0236
     97 H44       -10.0704  -17.8288   15.6326 H           1 SU3       0.0236
     98 H45       -11.5359  -17.4491   16.5331 H           1 SU3       0.0236
     99 H46       -16.4286  -11.2185   12.2751 H           1 SU3       0.0237
    100 H47       -15.2079   -9.9399   12.2901 H           1 SU3       0.0237
    101 H48       -16.4913   -9.9511   13.5038 H           1 SU3       0.0237
    102 H49       -15.3023  -12.9067   15.4882 H           1 SU3       0.0237
    103 H50       -16.4619  -13.0074   14.1553 H           1 SU3       0.0237
    104 H51       -16.5614  -11.6842   15.3265 H           1 SU3       0.0237
    105 H52       -14.3638  -11.6200    9.8845 H           1 SU3       0.0553
    106 H53       -13.6195  -13.2097   10.2069 H           1 SU3       0.0553
@<TRIPOS>BOND
     1     1     3   2
     2     1     4   1
     3    21     1  am
     4     4     2   1
     5     2     7  am
     6     2    52   1
     7     4     5   1
     8     5     6   1
     9     6    52   1
    10     6    53   1
    11     7     8   2
    12     7     9   1
    13     9    10   1
    14     9    13   1
    15    10    11  am
    16    11    12   1
    17    11    14   2
    18    12    47   1
    19    13    20   1
    20    13    50   1
    21    13    51   1
    22    15    16   2
    23    15    17  am
    24    53    15   1
    25    17    26   1
    26    17    29   1
    27    18    19   1
    28    24    18   1
    29    22    21   1
    30    22    23   1
    31    22    24   1
    32    22    25   1
    33    23    35  am
    34    23    36   2
    35    24    25   1
    36    26    27   2
    37    27    28  ar
    38    27    30  ar
    39    28    29   2
    40    28    33  ar
    41    30    31  ar
    42    31    32  ar
    43    32    33  ar
    44    33    34   1
    45    34    43   1
    46    35    37  am
    47    37    38   1
    48    37    39   2
    49    37    40   2
    50    38    41   1
    51    38    42   1
    52    41    42   1
    53    43    44   1
    54    44    45   1
    55    45    46   1
    56    46    47   1
    57    46    48   1
    58    46    49   1
    59     4    54   1
    60     5    55   1
    61     5    56   1
    62     6    57   1
    63     9    58   1
    64    10    59   1
    65    18    60   1
    66    18    61   1
    67    19    62   1
    68    19    63   1
    69    19    64   1
    70    20    65   1
    71    20    66   1
    72    20    67   1
    73    21    68   1
    74    24    69   1
    75    25    70   1
    76    25    71   1
    77    26    72   1
    78    29    73   1
    79    30    74   1
    80    31    75   1
    81    32    76   1
    82    34    77   1
    83    34    78   1
    84    35    79   1
    85    38    80   1
    86    41    81   1
    87    41    82   1
    88    42    83   1
    89    42    84   1
    90    43    85   1
    91    43    86   1
    92    44    87   1
    93    44    88   1
    94    45    89   1
    95    45    90   1
    96    47    91   1
    97    47    92   1
    98    48    93   1
    99    48    94   1
   100    48    95   1
   101    49    96   1
   102    49    97   1
   103    49    98   1
   104    50    99   1
   105    50   100   1
   106    50   101   1
   107    51   102   1
   108    51   103   1
   109    51   104   1
   110    52   105   1
   111    52   106   1
@<TRIPOS>SUBSTRUCTURE
     1  SU3      1

