@<TRIPOS>MOLECULE
3su5_ligand_072
   106   111
SMALL
GAST_HUCK
****
This file was generated by PARSER (from files_GN.cpp)

@<TRIPOS>ATOM
      1 C         -18.2282  -13.1928   14.8125 C.2         1 SU3       0.2013
      2 N         -16.2420  -12.3510   13.6668 N.am        1 SU3      -0.2469
      3 O         -19.2431  -13.8674   14.7937 O.2         1 SU3      -0.3947
      4 CA        -17.2823  -13.3544   13.7038 C.3         1 SU3       0.1363
      5 CB        -16.5089  -14.6896   13.8062 C.3         1 SU3       0.0206
      6 CG        -15.2168  -14.3311   14.5587 C.3         1 SU3       0.1158
      7 CAF       -16.3941  -11.1254   13.1434 C.2         1 SU3       0.2070
      8 OAG       -17.3841  -10.9064   12.4480 O.2         1 SU3      -0.3942
      9 CAH       -15.4094  -10.0321   13.2435 C.3         1 SU3       0.1378
     10 NAI       -14.5856  -10.1291   12.0711 N.am        1 SU3      -0.2407
     11 CAJ       -13.2427  -10.2377   12.0193 C.2         1 SU3       0.3218
     12 OAK       -12.6801  -10.1742   10.7846 O.3         1 SU3      -0.2633
     13 CAL       -15.9615   -8.5504   13.4453 C.3         1 SU3       0.0025
     14 OAM       -12.4789  -10.3060   13.1347 O.2         1 SU3      -0.3774
     15 CAO       -13.8338  -16.4220   14.2310 C.2         1 SU3       0.4317
     16 OAP       -14.6557  -17.2003   14.9771 O.2         1 SU3      -0.3166
     17 NAQ       -12.7763  -16.9570   13.5676 N.am        1 SU3      -0.2080
     18 CAR       -19.1619  -10.2660   18.8897 C.3         1 SU3      -0.0516
     19 CAS       -20.0743  -10.9644   19.9259 C.3         1 SU3      -0.0651
     20 CAT       -17.2879   -8.5147   14.2787 C.3         1 SU3      -0.0558
     21 NAV       -17.9693  -12.4039   15.8591 N.am        1 SU3      -0.2737
     22 CAX       -18.7836  -12.2704   17.0331 C.3         1 SU3       0.1374
     23 CAY       -18.6256  -13.2809   18.0611 C.2         1 SU3       0.2444
     24 CAZ       -19.1033  -10.8003   17.4274 C.3         1 SU3      -0.0066
     25 CBA       -20.2059  -11.6893   16.8389 C.3         1 SU3      -0.0152
     26 CBB       -12.3945  -18.2535   13.5713 C.2         1 SU3       0.0383
     27 CBC       -11.3126  -18.4037   12.7095 C.ar        1 SU3      -0.0374
     28 CBD       -11.0362  -17.1509   12.1665 C.ar        1 SU3      -0.0293
     29 CBE       -11.9555  -16.2725   12.7410 C.2         1 SU3       0.0366
     30 CBF       -10.5602  -19.5327   12.3447 C.ar        1 SU3      -0.0689
     31 CBG        -9.5066  -19.3679   11.4223 C.ar        1 SU3      -0.0688
     32 CBH        -9.2352  -18.0981   10.8655 C.ar        1 SU3      -0.0606
     33 CBI       -10.0075  -16.9629   11.2166 C.ar        1 SU3      -0.0432
     34 CBJ        -9.7598  -15.6297   10.5950 C.3         1 SU3      -0.0194
     35 NBK       -17.7823  -13.0662   19.0549 N.am        1 SU3      -0.1552
     36 OBL       -19.2763  -14.3147   17.9716 O.2         1 SU3      -0.3404
     37 SBM       -17.6379  -14.0504   20.4159 S.o2        1 SU3       0.0645
     38 CBN       -17.0800  -15.7385   20.0717 C.3         1 SU3       0.1004
     39 OBO       -16.4884  -13.3818   21.2816 O.2         1 SU3      -0.1503
     40 OBP       -18.9253  -13.9413   21.3427 O.2         1 SU3      -0.1503
     41 CBQ       -16.9556  -16.6821   21.2726 C.3         1 SU3      -0.0268
     42 CBR       -18.0708  -16.8956   20.2468 C.3         1 SU3      -0.0268
     43 CBS       -10.8626  -15.2439    9.5680 C.3         1 SU3      -0.0433
     44 CBT       -10.6947  -13.8355    8.9346 C.3         1 SU3      -0.0507
     45 CBU       -11.0492  -12.6467    9.8826 C.3         1 SU3      -0.0453
     46 CBV       -10.9165  -11.1911    9.2975 C.3         1 SU3      -0.0072
     47 CBW       -11.2917  -10.1510   10.4140 C.3         1 SU3       0.0824
     48 CBX        -9.4424  -10.8995    8.8601 C.3         1 SU3      -0.0574
     49 CBY       -11.8622  -10.9792    8.0693 C.3         1 SU3      -0.0574
     50 CBZ       -14.8976   -7.7160   14.2425 C.3         1 SU3      -0.0558
     51 CCA       -16.2395   -7.8091   12.0902 C.3         1 SU3      -0.0558
     52 CD1       -15.0183  -12.8347   14.2437 C.3         1 SU3       0.0677
     53 OD2       -14.0999  -15.0968   14.0880 O.3         1 SU3      -0.2338
     54 H1        -17.8413  -13.3571   12.7600 H           1 SU3       0.0803
     55 H2        -16.2619  -15.0463   12.8007 H           1 SU3       0.0342
     56 H3        -17.0644  -15.4800   14.3189 H           1 SU3       0.0342
     57 H4        -15.3518  -14.4723   15.6377 H           1 SU3       0.0673
     58 H5        -14.8074  -10.2406   14.1291 H           1 SU3       0.0805
     59 H6        -15.0422  -10.0490   11.2175 H           1 SU3       0.1899
     60 H7        -18.1410  -10.2509   19.2763 H           1 SU3       0.0265
     61 H8        -19.4844   -9.2247   18.8270 H           1 SU3       0.0265
     62 H9        -19.9225  -10.5127   20.9121 H           1 SU3       0.0230
     63 H10       -19.8490  -12.0241   20.0079 H           1 SU3       0.0230
     64 H11       -21.1233  -10.8460   19.6519 H           1 SU3       0.0230
     65 H12       -17.5578   -7.4885   14.5396 H           1 SU3       0.0237
     66 H13       -17.1717   -9.0866   15.2001 H           1 SU3       0.0237
     67 H14       -18.1242   -8.9363   13.7131 H           1 SU3       0.0237
     68 H15       -17.1354  -11.9100   15.8549 H           1 SU3       0.1839
     69 H16       -18.7341  -10.0721   16.6996 H           1 SU3       0.0312
     70 H17       -20.9740  -12.0513   17.5199 H           1 SU3       0.0279
     71 H18       -20.5000  -11.4515   15.8149 H           1 SU3       0.0279
     72 H19       -12.8322  -19.0144   14.0975 H           1 SU3       0.0373
     73 H20       -12.0068  -15.2725   12.5361 H           1 SU3       0.0361
     74 H21       -10.7698  -20.4510   12.7403 H           1 SU3       0.0557
     75 H22        -8.9430  -20.1753   11.1493 H           1 SU3       0.0599
     76 H23        -8.4739  -18.0142   10.1862 H           1 SU3       0.0557
     77 H24        -8.7952  -15.6265   10.0800 H           1 SU3       0.0426
     78 H25        -9.6970  -14.8853   11.3900 H           1 SU3       0.0426
     79 H26       -17.2593  -12.2510   19.0380 H           1 SU3       0.2148
     80 H27       -16.3060  -15.8780   19.3122 H           1 SU3       0.0559
     81 H28       -17.2698  -16.2903   22.2443 H           1 SU3       0.0285
     82 H29       -16.1250  -17.3918   21.2280 H           1 SU3       0.0285
     83 H30       -17.9352  -17.7330   19.5571 H           1 SU3       0.0285
     84 H31       -19.0803  -16.6303   20.5710 H           1 SU3       0.0285
     85 H32       -11.8522  -15.3035   10.0268 H           1 SU3       0.0287
     86 H33       -10.8382  -15.9814    8.7598 H           1 SU3       0.0287
     87 H34       -11.3520  -13.7915    8.0643 H           1 SU3       0.0267
     88 H35        -9.6679  -13.7395    8.5785 H           1 SU3       0.0267
     89 H36       -10.4094  -12.7177   10.7656 H           1 SU3       0.0271
     90 H37       -12.0784  -12.7927   10.2246 H           1 SU3       0.0271
     91 H38       -10.6562  -10.2990   11.2907 H           1 SU3       0.0617
     92 H39       -11.1014   -9.1394   10.0478 H           1 SU3       0.0617
     93 H40        -9.1455  -11.5279    8.0197 H           1 SU3       0.0236
     94 H41        -8.7507  -11.0823    9.6858 H           1 SU3       0.0236
     95 H42        -9.3266   -9.8603    8.5449 H           1 SU3       0.0236
     96 H43       -12.8888  -11.2579    8.3164 H           1 SU3       0.0236
     97 H44       -11.5433  -11.5817    7.2174 H           1 SU3       0.0236
     98 H45       -11.8597   -9.9341    7.7530 H           1 SU3       0.0236
     99 H46       -13.9388   -7.7098   13.7268 H           1 SU3       0.0237
    100 H47       -14.7420   -8.1445   15.2365 H           1 SU3       0.0237
    101 H48       -15.2143   -6.6814   14.3785 H           1 SU3       0.0237
    102 H49       -16.9400   -8.3689   11.4684 H           1 SU3       0.0237
    103 H50       -15.3154   -7.6763   11.5220 H           1 SU3       0.0237
    104 H51       -16.6632   -6.8177   12.2620 H           1 SU3       0.0237
    105 H52       -14.7839  -12.2878   15.1610 H           1 SU3       0.0553
    106 H53       -14.2036  -12.7061   13.5251 H           1 SU3       0.0553
@<TRIPOS>BOND
     1     1     3   2
     2     1     4   1
     3    21     1  am
     4     4     2   1
     5     2     7  am
     6     2    52   1
     7     4     5   1
     8     5     6   1
     9     6    52   1
    10     6    53   1
    11     7     8   2
    12     7     9   1
    13     9    10   1
    14     9    13   1
    15    10    11  am
    16    11    12   1
    17    11    14   2
    18    12    47   1
    19    13    20   1
    20    13    50   1
    21    13    51   1
    22    15    16   2
    23    15    17  am
    24    53    15   1
    25    17    26   1
    26    17    29   1
    27    18    19   1
    28    24    18   1
    29    22    21   1
    30    22    23   1
    31    22    24   1
    32    22    25   1
    33    23    35  am
    34    23    36   2
    35    24    25   1
    36    26    27   2
    37    27    28  ar
    38    27    30  ar
    39    28    29   2
    40    28    33  ar
    41    30    31  ar
    42    31    32  ar
    43    32    33  ar
    44    33    34   1
    45    34    43   1
    46    35    37  am
    47    37    38   1
    48    37    39   2
    49    37    40   2
    50    38    41   1
    51    38    42   1
    52    41    42   1
    53    43    44   1
    54    44    45   1
    55    45    46   1
    56    46    47   1
    57    46    48   1
    58    46    49   1
    59     4    54   1
    60     5    55   1
    61     5    56   1
    62     6    57   1
    63     9    58   1
    64    10    59   1
    65    18    60   1
    66    18    61   1
    67    19    62   1
    68    19    63   1
    69    19    64   1
    70    20    65   1
    71    20    66   1
    72    20    67   1
    73    21    68   1
    74    24    69   1
    75    25    70   1
    76    25    71   1
    77    26    72   1
    78    29    73   1
    79    30    74   1
    80    31    75   1
    81    32    76   1
    82    34    77   1
    83    34    78   1
    84    35    79   1
    85    38    80   1
    86    41    81   1
    87    41    82   1
    88    42    83   1
    89    42    84   1
    90    43    85   1
    91    43    86   1
    92    44    87   1
    93    44    88   1
    94    45    89   1
    95    45    90   1
    96    47    91   1
    97    47    92   1
    98    48    93   1
    99    48    94   1
   100    48    95   1
   101    49    96   1
   102    49    97   1
   103    49    98   1
   104    50    99   1
   105    50   100   1
   106    50   101   1
   107    51   102   1
   108    51   103   1
   109    51   104   1
   110    52   105   1
   111    52   106   1
@<TRIPOS>SUBSTRUCTURE
     1  SU3      1

