@<TRIPOS>MOLECULE
3su5_ligand_069
   106   111
SMALL
GAST_HUCK
****
This file was generated by PARSER (from files_GN.cpp)

@<TRIPOS>ATOM
      1 C         -12.4219   -6.3425    9.9225 C.2         1 SU3       0.2013
      2 N         -10.1886   -5.4550    9.4922 N.am        1 SU3      -0.2469
      3 O         -13.5907   -6.4686    9.5782 O.2         1 SU3      -0.3947
      4 CA        -11.6172   -5.2670    9.3341 C.3         1 SU3       0.1363
      5 CB        -11.7945   -5.0964    7.8006 C.3         1 SU3       0.0206
      6 CG        -10.6283   -5.8653    7.1637 C.3         1 SU3       0.1158
      7 CAF        -9.5152   -5.2163   10.6360 C.2         1 SU3       0.2070
      8 OAG       -10.1288   -4.6991   11.5623 O.2         1 SU3      -0.3942
      9 CAH        -8.0779   -5.4565   10.8590 C.3         1 SU3       0.1378
     10 NAI        -7.4505   -4.1642   10.8180 N.am        1 SU3      -0.2407
     11 CAJ        -6.4669   -3.7691    9.9792 C.2         1 SU3       0.3218
     12 OAK        -5.9915   -2.5073   10.1362 O.3         1 SU3      -0.2633
     13 CAL        -7.6656   -6.2796   12.1539 C.3         1 SU3       0.0025
     14 OAM        -5.9202   -4.6054    9.0647 O.2         1 SU3      -0.3774
     15 CAO       -10.6017   -5.0512    4.7492 C.2         1 SU3       0.4317
     16 OAP       -11.7385   -5.6939    4.3902 O.2         1 SU3      -0.3166
     17 NAQ        -9.9565   -4.2178    3.8935 N.am        1 SU3      -0.2080
     18 CAR       -14.2469  -10.2638   11.0171 C.3         1 SU3      -0.0516
     19 CAS       -14.2431  -11.5582   10.1753 C.3         1 SU3      -0.0651
     20 CAT        -7.8831   -5.4937   13.4907 C.3         1 SU3      -0.0558
     21 NAV       -11.9523   -7.0930   10.9112 N.am        1 SU3      -0.2737
     22 CAX       -12.6337   -8.1618   11.5740 C.3         1 SU3       0.1374
     23 CAY       -13.2862   -7.8473   12.8481 C.2         1 SU3       0.2444
     24 CAZ       -13.0424   -9.3548   10.6718 C.3         1 SU3      -0.0066
     25 CBA       -11.7758   -9.4542   11.5307 C.3         1 SU3      -0.0152
     26 CBB       -10.2776   -3.9564    2.6057 C.2         1 SU3       0.0383
     27 CBC        -9.4001   -2.9951    2.1096 C.ar        1 SU3      -0.0374
     28 CBD        -8.5297   -2.6594    3.1442 C.ar        1 SU3      -0.0293
     29 CBE        -8.8880   -3.4568    4.2248 C.2         1 SU3       0.0366
     30 CBF        -9.2966   -2.3774    0.8519 C.ar        1 SU3      -0.0689
     31 CBG        -8.2924   -1.4063    0.6593 C.ar        1 SU3      -0.0688
     32 CBH        -7.4235   -1.0538    1.7166 C.ar        1 SU3      -0.0606
     33 CBI        -7.5319   -1.6676    2.9907 C.ar        1 SU3      -0.0432
     34 CBJ        -6.6531   -1.2698    4.1265 C.3         1 SU3      -0.0194
     35 NBK       -13.8201   -6.6466   13.0230 N.am        1 SU3      -0.1552
     36 OBL       -13.2753   -8.6473   13.7757 O.2         1 SU3      -0.3404
     37 SBM       -14.4313   -6.0473   14.4796 S.o2        1 SU3       0.0645
     38 CBN       -13.1618   -5.5870   15.6869 C.3         1 SU3       0.1004
     39 OBO       -15.2501   -4.7398   14.0934 O.2         1 SU3      -0.1503
     40 OBP       -15.5223   -7.0370   15.0766 O.2         1 SU3      -0.1503
     41 CBQ       -13.4855   -4.4621   16.6855 C.3         1 SU3      -0.0268
     42 CBR       -13.4133   -5.9132   17.1691 C.3         1 SU3      -0.0268
     43 CBS        -7.4121   -0.4316    5.1963 C.3         1 SU3      -0.0433
     44 CBT        -6.5376    0.0583    6.3843 C.3         1 SU3      -0.0507
     45 CBU        -6.1161   -1.0519    7.3960 C.3         1 SU3      -0.0453
     46 CBV        -5.2741   -0.6046    8.6515 C.3         1 SU3      -0.0072
     47 CBW        -4.8781   -1.8750    9.4841 C.3         1 SU3       0.0824
     48 CBX        -3.9481    0.1016    8.2125 C.3         1 SU3      -0.0574
     49 CBY        -6.0893    0.3677    9.5659 C.3         1 SU3      -0.0574
     50 CBZ        -8.4639   -7.6229   12.2329 C.3         1 SU3      -0.0558
     51 CCA        -6.1439   -6.6478   12.0647 C.3         1 SU3      -0.0558
     52 CD1        -9.5580   -5.8673    8.2713 C.3         1 SU3       0.0677
     53 OD2       -10.1126   -5.1915    6.0094 O.3         1 SU3      -0.2338
     54 H1        -11.9381   -4.3312    9.8033 H           1 SU3       0.0803
     55 H2        -11.7091   -4.0363    7.5450 H           1 SU3       0.0342
     56 H3        -12.7549   -5.4535    7.4210 H           1 SU3       0.0342
     57 H4        -10.9263   -6.8902    6.9198 H           1 SU3       0.0673
     58 H5         -7.7035   -6.0519   10.0264 H           1 SU3       0.0805
     59 H6         -7.7495   -3.5126   11.4717 H           1 SU3       0.1899
     60 H7        -14.2425  -10.5350   12.0753 H           1 SU3       0.0265
     61 H8        -15.1644   -9.7102   10.8123 H           1 SU3       0.0265
     62 H9        -15.1047  -12.1733   10.4395 H           1 SU3       0.0230
     63 H10       -13.3339  -12.1328   10.3640 H           1 SU3       0.0230
     64 H11       -14.2984  -11.3243    9.1101 H           1 SU3       0.0230
     65 H12        -7.5265   -6.0735   14.3456 H           1 SU3       0.0237
     66 H13        -8.9366   -5.2810   13.6657 H           1 SU3       0.0237
     67 H14        -7.3382   -4.5491   13.4782 H           1 SU3       0.0237
     68 H15       -11.0563   -6.9077   11.2214 H           1 SU3       0.1839
     69 H16       -12.8377   -9.2019    9.6088 H           1 SU3       0.0312
     70 H17       -11.8331  -10.1509   12.3694 H           1 SU3       0.0279
     71 H18       -10.8385   -9.4140   10.9701 H           1 SU3       0.0279
     72 H19       -11.0441   -4.3779    2.0757 H           1 SU3       0.0373
     73 H20        -8.4266   -3.4383    5.1374 H           1 SU3       0.0361
     74 H21        -9.9342   -2.6252    0.0923 H           1 SU3       0.0557
     75 H22        -8.1990   -0.9466   -0.2496 H           1 SU3       0.0599
     76 H23        -6.7168   -0.3328    1.5512 H           1 SU3       0.0557
     77 H24        -5.8097   -0.6780    3.7603 H           1 SU3       0.0426
     78 H25        -6.2366   -2.1725    4.5775 H           1 SU3       0.0426
     79 H26       -13.8037   -6.0312   12.2742 H           1 SU3       0.2148
     80 H27       -12.1159   -5.6301   15.3782 H           1 SU3       0.0559
     81 H28       -14.4928   -4.0410   16.6793 H           1 SU3       0.0285
     82 H29       -12.6512   -3.8351   17.0072 H           1 SU3       0.0285
     83 H30       -12.5394   -6.1364   17.7853 H           1 SU3       0.0285
     84 H31       -14.3810   -6.3264   17.4567 H           1 SU3       0.0285
     85 H32        -8.2562   -0.9983    5.5958 H           1 SU3       0.0287
     86 H33        -7.8232    0.4524    4.6991 H           1 SU3       0.0287
     87 H34        -7.1149    0.8152    6.9192 H           1 SU3       0.0267
     88 H35        -5.6514    0.5467    5.9750 H           1 SU3       0.0267
     89 H36        -5.5397   -1.7997    6.8461 H           1 SU3       0.0271
     90 H37        -7.0267   -1.5468    7.7464 H           1 SU3       0.0271
     91 H38        -4.3446   -2.5858    8.8460 H           1 SU3       0.0617
     92 H39        -4.1890   -1.5949   10.2854 H           1 SU3       0.0617
     93 H40        -4.1498    1.0490    7.7104 H           1 SU3       0.0236
     94 H41        -3.3802   -0.5346    7.5298 H           1 SU3       0.0236
     95 H42        -3.3168    0.3205    9.0770 H           1 SU3       0.0236
     96 H43        -7.0600   -0.0625    9.8222 H           1 SU3       0.0236
     97 H44        -6.2631    1.3243    9.0705 H           1 SU3       0.0236
     98 H45        -5.5504    0.5697   10.4945 H           1 SU3       0.0236
     99 H46        -8.3880   -8.1764   11.2943 H           1 SU3       0.0237
    100 H47        -9.5163   -7.4369   12.4388 H           1 SU3       0.0237
    101 H48        -8.0851   -8.2608   13.0347 H           1 SU3       0.0237
    102 H49        -5.5239   -5.7518   12.0187 H           1 SU3       0.0237
    103 H50        -5.9398   -7.2454   11.1742 H           1 SU3       0.0237
    104 H51        -5.8258   -7.2288   12.9344 H           1 SU3       0.0237
    105 H52        -9.1341   -6.8702    8.3704 H           1 SU3       0.0553
    106 H53        -8.7588   -5.1621    8.0196 H           1 SU3       0.0553
@<TRIPOS>BOND
     1     1     3   2
     2     1     4   1
     3    21     1  am
     4     4     2   1
     5     2     7  am
     6     2    52   1
     7     4     5   1
     8     5     6   1
     9     6    52   1
    10     6    53   1
    11     7     8   2
    12     7     9   1
    13     9    10   1
    14     9    13   1
    15    10    11  am
    16    11    12   1
    17    11    14   2
    18    12    47   1
    19    13    20   1
    20    13    50   1
    21    13    51   1
    22    15    16   2
    23    15    17  am
    24    53    15   1
    25    17    26   1
    26    17    29   1
    27    18    19   1
    28    24    18   1
    29    22    21   1
    30    22    23   1
    31    22    24   1
    32    22    25   1
    33    23    35  am
    34    23    36   2
    35    24    25   1
    36    26    27   2
    37    27    28  ar
    38    27    30  ar
    39    28    29   2
    40    28    33  ar
    41    30    31  ar
    42    31    32  ar
    43    32    33  ar
    44    33    34   1
    45    34    43   1
    46    35    37  am
    47    37    38   1
    48    37    39   2
    49    37    40   2
    50    38    41   1
    51    38    42   1
    52    41    42   1
    53    43    44   1
    54    44    45   1
    55    45    46   1
    56    46    47   1
    57    46    48   1
    58    46    49   1
    59     4    54   1
    60     5    55   1
    61     5    56   1
    62     6    57   1
    63     9    58   1
    64    10    59   1
    65    18    60   1
    66    18    61   1
    67    19    62   1
    68    19    63   1
    69    19    64   1
    70    20    65   1
    71    20    66   1
    72    20    67   1
    73    21    68   1
    74    24    69   1
    75    25    70   1
    76    25    71   1
    77    26    72   1
    78    29    73   1
    79    30    74   1
    80    31    75   1
    81    32    76   1
    82    34    77   1
    83    34    78   1
    84    35    79   1
    85    38    80   1
    86    41    81   1
    87    41    82   1
    88    42    83   1
    89    42    84   1
    90    43    85   1
    91    43    86   1
    92    44    87   1
    93    44    88   1
    94    45    89   1
    95    45    90   1
    96    47    91   1
    97    47    92   1
    98    48    93   1
    99    48    94   1
   100    48    95   1
   101    49    96   1
   102    49    97   1
   103    49    98   1
   104    50    99   1
   105    50   100   1
   106    50   101   1
   107    51   102   1
   108    51   103   1
   109    51   104   1
   110    52   105   1
   111    52   106   1
@<TRIPOS>SUBSTRUCTURE
     1  SU3      1

