@<TRIPOS>MOLECULE
3su5_ligand_050
   106   111
SMALL
GAST_HUCK
****
This file was generated by PARSER (from files_GN.cpp)

@<TRIPOS>ATOM
      1 C          -6.7255   -4.8158   10.2022 C.2         1 SU3       0.2013
      2 N          -6.6693   -2.6622    8.9785 N.am        1 SU3      -0.2469
      3 O          -5.5416   -5.0823   10.3572 O.2         1 SU3      -0.3947
      4 CA         -7.1302   -4.0340    9.0414 C.3         1 SU3       0.1363
      5 CB         -6.6068   -4.7039    7.7473 C.3         1 SU3       0.0206
      6 CG         -6.5623   -3.5206    6.7705 C.3         1 SU3       0.1158
      7 CAF        -6.8259   -1.7638    9.9701 C.2         1 SU3       0.2070
      8 OAG        -7.4338   -2.1299   10.9721 O.2         1 SU3      -0.3942
      9 CAH        -6.3921   -0.3522    9.9678 C.3         1 SU3       0.1378
     10 NAI        -7.5319    0.4622   10.3114 N.am        1 SU3      -0.2407
     11 CAJ        -8.1073    1.4023    9.5277 C.2         1 SU3       0.3218
     12 OAK        -9.1650    2.0712   10.0497 O.3         1 SU3      -0.2633
     13 CAL        -5.1281   -0.0515   10.8825 C.3         1 SU3       0.0025
     14 OAM        -7.6587    1.6779    8.2794 O.2         1 SU3      -0.3774
     15 CAO        -8.5458   -3.9123    5.2825 C.2         1 SU3       0.4317
     16 OAP        -8.0000   -5.0401    4.7625 O.2         1 SU3      -0.3166
     17 NAQ        -9.7364   -3.4428    4.8254 N.am        1 SU3      -0.2080
     18 CAR        -7.2971   -8.5722   12.9775 C.3         1 SU3      -0.0516
     19 CAS        -6.5296   -8.7520   14.3156 C.3         1 SU3      -0.0651
     20 CAT        -4.9681   -1.0541   12.0729 C.3         1 SU3      -0.0558
     21 NAV        -7.6413   -5.2386   11.0503 N.am        1 SU3      -0.2737
     22 CAX        -7.3565   -5.9193   12.2766 C.3         1 SU3       0.1374
     23 CAY        -8.3054   -5.6938   13.3518 C.2         1 SU3       0.2444
     24 CAZ        -6.9157   -7.3927   12.0493 C.3         1 SU3      -0.0066
     25 CBA        -5.8910   -6.3603   12.5202 C.3         1 SU3      -0.0152
     26 CBB       -10.4964   -4.0151    3.8643 C.2         1 SU3       0.0383
     27 CBC       -11.6033   -3.2131    3.6286 C.ar        1 SU3      -0.0374
     28 CBD       -11.5164   -2.1152    4.4835 C.ar        1 SU3      -0.0293
     29 CBE       -10.3436   -2.2986    5.2197 C.2         1 SU3       0.0366
     30 CBF       -12.6655   -3.3436    2.7149 C.ar        1 SU3      -0.0689
     31 CBG       -13.6428   -2.3329    2.6739 C.ar        1 SU3      -0.0688
     32 CBH       -13.5561   -1.2155    3.5347 C.ar        1 SU3      -0.0606
     33 CBI       -12.4874   -1.0852    4.4629 C.ar        1 SU3      -0.0432
     34 CBJ       -12.4078    0.0994    5.3609 C.3         1 SU3      -0.0194
     35 NBK        -9.5571   -6.1068   13.2018 N.am        1 SU3      -0.1552
     36 OBL        -7.9295   -5.0681   14.3292 O.2         1 SU3      -0.3404
     37 SBM       -10.8393   -5.8881   14.2858 S.o2        1 SU3       0.0645
     38 CBN       -11.6685   -7.4175   14.8290 C.3         1 SU3       0.1004
     39 OBO       -10.3596   -5.1040   15.5831 O.2         1 SU3      -0.1503
     40 OBP       -11.8738   -4.8993   13.5926 O.2         1 SU3      -0.1503
     41 CBQ       -13.2106   -7.3999   14.9043 C.3         1 SU3      -0.0268
     42 CBR       -12.5122   -8.2261   13.8218 C.3         1 SU3      -0.0268
     43 CBS       -12.8309   -0.2403    6.8157 C.3         1 SU3      -0.0433
     44 CBT       -12.8743    0.9798    7.7782 C.3         1 SU3      -0.0507
     45 CBU       -11.4770    1.5569    8.1571 C.3         1 SU3      -0.0453
     46 CBV       -11.4271    2.7230    9.2162 C.3         1 SU3      -0.0072
     47 CBW        -9.9298    3.1278    9.4484 C.3         1 SU3       0.0824
     48 CBX       -12.1876    3.9855    8.6988 C.3         1 SU3      -0.0574
     49 CBY       -12.0424    2.2801   10.5830 C.3         1 SU3      -0.0574
     50 CBZ        -3.8246   -0.1170   10.0147 C.3         1 SU3      -0.0558
     51 CCA        -5.2123    1.3962   11.4827 C.3         1 SU3      -0.0558
     52 CD1        -6.1204   -2.3618    7.6861 C.3         1 SU3       0.0677
     53 OD2        -7.8622   -3.2206    6.2336 O.3         1 SU3      -0.2338
     54 H1         -8.2287   -4.0210    8.9807 H           1 SU3       0.0803
     55 H2         -7.2536   -5.5196    7.4028 H           1 SU3       0.0342
     56 H3         -5.5840   -5.0859    7.8687 H           1 SU3       0.0342
     57 H4         -5.8377   -3.6838    5.9609 H           1 SU3       0.0673
     58 H5         -6.0844   -0.0804    8.9572 H           1 SU3       0.0805
     59 H6         -7.9053    0.3377   11.1965 H           1 SU3       0.1899
     60 H7         -8.3647   -8.4812   13.1972 H           1 SU3       0.0265
     61 H8         -7.1449   -9.4878   12.3978 H           1 SU3       0.0265
     62 H9         -6.8667   -9.6714   14.7969 H           1 SU3       0.0230
     63 H10        -6.7134   -7.9068   14.9939 H           1 SU3       0.0230
     64 H11        -5.4506   -8.8355   14.1239 H           1 SU3       0.0230
     65 H12        -4.1225   -0.7706   12.7037 H           1 SU3       0.0237
     66 H13        -4.7701   -2.0619   11.7001 H           1 SU3       0.0237
     67 H14        -5.8735   -1.0768   12.6893 H           1 SU3       0.0237
     68 H15        -8.5736   -5.0113   10.8790 H           1 SU3       0.1839
     69 H16        -6.8516   -7.6585   10.9937 H           1 SU3       0.0312
     70 H17        -5.5842   -6.3570   13.5551 H           1 SU3       0.0279
     71 H18        -5.1679   -6.0963   11.7506 H           1 SU3       0.0279
     72 H19       -10.2825   -4.8792    3.3635 H           1 SU3       0.0373
     73 H20        -9.9866   -1.6410    5.9206 H           1 SU3       0.0361
     74 H21       -12.7221   -4.1480    2.0902 H           1 SU3       0.0557
     75 H22       -14.4254   -2.4095    2.0184 H           1 SU3       0.0599
     76 H23       -14.2899   -0.5050    3.4865 H           1 SU3       0.0557
     77 H24       -13.0567    0.8994    4.9954 H           1 SU3       0.0426
     78 H25       -11.3881    0.4880    5.3434 H           1 SU3       0.0426
     79 H26        -9.7831   -6.5547   12.3694 H           1 SU3       0.2148
     80 H27       -11.1958   -8.0018   15.6259 H           1 SU3       0.0559
     81 H28       -13.7427   -6.5210   14.5215 H           1 SU3       0.0285
     82 H29       -13.6660   -7.9926   15.6998 H           1 SU3       0.0285
     83 H30       -12.5375   -9.3069   13.9804 H           1 SU3       0.0285
     84 H31       -12.6243   -7.8293   12.8084 H           1 SU3       0.0285
     85 H32       -12.1613   -0.9961    7.2290 H           1 SU3       0.0287
     86 H33       -13.8337   -0.6780    6.7875 H           1 SU3       0.0287
     87 H34       -13.3769    0.6493    8.6893 H           1 SU3       0.0267
     88 H35       -13.4907    1.7600    7.3287 H           1 SU3       0.0267
     89 H36       -10.9983    1.9097    7.2402 H           1 SU3       0.0271
     90 H37       -10.8717    0.7249    8.5265 H           1 SU3       0.0271
     91 H38        -9.4829    3.4439    8.5006 H           1 SU3       0.0617
     92 H39        -9.8689    3.9849   10.1275 H           1 SU3       0.0617
     93 H40       -13.2527    3.7860    8.5827 H           1 SU3       0.0236
     94 H41       -11.7919    4.3077    7.7341 H           1 SU3       0.0236
     95 H42       -12.0834    4.8157    9.4010 H           1 SU3       0.0236
     96 H43       -11.5970    1.3453   10.9280 H           1 SU3       0.0236
     97 H44       -13.1175    2.1313   10.4970 H           1 SU3       0.0236
     98 H45       -11.8737    3.0402   11.3481 H           1 SU3       0.0236
     99 H46        -3.8708    0.6144    9.1998 H           1 SU3       0.0237
    100 H47        -3.7017   -1.1112    9.5771 H           1 SU3       0.0237
    101 H48        -2.9358    0.1084   10.6163 H           1 SU3       0.0237
    102 H49        -6.0597    1.4852   12.1677 H           1 SU3       0.0237
    103 H50        -5.3401    2.1379   10.6868 H           1 SU3       0.0237
    104 H51        -4.3074    1.6503   12.0473 H           1 SU3       0.0237
    105 H52        -5.0259   -2.2929    7.7486 H           1 SU3       0.0553
    106 H53        -6.5149   -1.4306    7.2662 H           1 SU3       0.0553
@<TRIPOS>BOND
     1     1     3   2
     2     1     4   1
     3    21     1  am
     4     4     2   1
     5     2     7  am
     6     2    52   1
     7     4     5   1
     8     5     6   1
     9     6    52   1
    10     6    53   1
    11     7     8   2
    12     7     9   1
    13     9    10   1
    14     9    13   1
    15    10    11  am
    16    11    12   1
    17    11    14   2
    18    12    47   1
    19    13    20   1
    20    13    50   1
    21    13    51   1
    22    15    16   2
    23    15    17  am
    24    53    15   1
    25    17    26   1
    26    17    29   1
    27    18    19   1
    28    24    18   1
    29    22    21   1
    30    22    23   1
    31    22    24   1
    32    22    25   1
    33    23    35  am
    34    23    36   2
    35    24    25   1
    36    26    27   2
    37    27    28  ar
    38    27    30  ar
    39    28    29   2
    40    28    33  ar
    41    30    31  ar
    42    31    32  ar
    43    32    33  ar
    44    33    34   1
    45    34    43   1
    46    35    37  am
    47    37    38   1
    48    37    39   2
    49    37    40   2
    50    38    41   1
    51    38    42   1
    52    41    42   1
    53    43    44   1
    54    44    45   1
    55    45    46   1
    56    46    47   1
    57    46    48   1
    58    46    49   1
    59     4    54   1
    60     5    55   1
    61     5    56   1
    62     6    57   1
    63     9    58   1
    64    10    59   1
    65    18    60   1
    66    18    61   1
    67    19    62   1
    68    19    63   1
    69    19    64   1
    70    20    65   1
    71    20    66   1
    72    20    67   1
    73    21    68   1
    74    24    69   1
    75    25    70   1
    76    25    71   1
    77    26    72   1
    78    29    73   1
    79    30    74   1
    80    31    75   1
    81    32    76   1
    82    34    77   1
    83    34    78   1
    84    35    79   1
    85    38    80   1
    86    41    81   1
    87    41    82   1
    88    42    83   1
    89    42    84   1
    90    43    85   1
    91    43    86   1
    92    44    87   1
    93    44    88   1
    94    45    89   1
    95    45    90   1
    96    47    91   1
    97    47    92   1
    98    48    93   1
    99    48    94   1
   100    48    95   1
   101    49    96   1
   102    49    97   1
   103    49    98   1
   104    50    99   1
   105    50   100   1
   106    50   101   1
   107    51   102   1
   108    51   103   1
   109    51   104   1
   110    52   105   1
   111    52   106   1
@<TRIPOS>SUBSTRUCTURE
     1  SU3      1

