@<TRIPOS>MOLECULE
3su5_ligand_026
   106   111
SMALL
GAST_HUCK
****
This file was generated by PARSER (from files_GN.cpp)

@<TRIPOS>ATOM
      1 C         -13.4500   -5.5482   11.5973 C.2         1 SU3       0.2013
      2 N         -12.9496   -4.8407    9.3139 N.am        1 SU3      -0.2469
      3 O         -13.7396   -6.6985   11.2866 O.2         1 SU3      -0.3947
      4 CA        -13.5551   -4.4945   10.5824 C.3         1 SU3       0.1363
      5 CB        -15.0354   -4.1697   10.2629 C.3         1 SU3       0.0206
      6 CG        -15.0242   -3.8354    8.7623 C.3         1 SU3       0.1158
      7 CAF       -11.6650   -5.2136    9.1897 C.2         1 SU3       0.2070
      8 OAG       -10.9265   -5.0381   10.1545 O.2         1 SU3      -0.3942
      9 CAH       -11.0344   -5.8009    7.9945 C.3         1 SU3       0.1378
     10 NAI        -9.9276   -4.9558    7.6349 N.am        1 SU3      -0.2407
     11 CAJ        -9.7817   -4.2787    6.4729 C.2         1 SU3       0.3218
     12 OAK        -8.6882   -3.4903    6.3471 O.3         1 SU3      -0.2633
     13 CAL       -10.6316   -7.3288    8.1443 C.3         1 SU3       0.0025
     14 OAM       -10.6777   -4.3724    5.4658 O.2         1 SU3      -0.3774
     15 CAO       -15.5022   -1.3595    8.7230 C.2         1 SU3       0.4317
     16 OAP       -16.7207   -1.5208    9.2958 O.2         1 SU3      -0.3166
     17 NAQ       -15.0903   -0.1253    8.3335 N.am        1 SU3      -0.2080
     18 CAR       -13.2008   -6.4380   16.5671 C.3         1 SU3      -0.0516
     19 CAS       -12.1012   -5.4911   17.1132 C.3         1 SU3      -0.0651
     20 CAT        -9.7150   -7.7653    6.9457 C.3         1 SU3      -0.0558
     21 NAV       -13.0044   -5.2695   12.8157 N.am        1 SU3      -0.2737
     22 CAX       -12.6813   -6.2280   13.8348 C.3         1 SU3       0.1374
     23 CAY       -11.2565   -6.4751   14.0710 C.2         1 SU3       0.2444
     24 CAZ       -13.5765   -6.0675   15.1002 C.3         1 SU3      -0.0066
     25 CBA       -13.7794   -7.2672   14.1601 C.3         1 SU3      -0.0152
     26 CBB       -15.7789    1.0297    8.4866 C.2         1 SU3       0.0383
     27 CBC       -15.0589    2.0664    7.9041 C.ar        1 SU3      -0.0374
     28 CBD       -13.8846    1.5175    7.3920 C.ar        1 SU3      -0.0293
     29 CBE       -13.9349    0.1555    7.6839 C.2         1 SU3       0.0366
     30 CBF       -15.3489    3.4332    7.7593 C.ar        1 SU3      -0.0689
     31 CBG       -14.4204    4.2488    7.0832 C.ar        1 SU3      -0.0688
     32 CBH       -13.2313    3.6967    6.5597 C.ar        1 SU3      -0.0606
     33 CBI       -12.9389    2.3140    6.7024 C.ar        1 SU3      -0.0432
     34 CBJ       -11.6992    1.7325    6.1235 C.3         1 SU3      -0.0194
     35 NBK       -10.3529   -5.8233   13.3526 N.am        1 SU3      -0.1552
     36 OBL       -10.8971   -7.1858   14.9993 O.2         1 SU3      -0.3404
     37 SBM        -8.6908   -5.8326   13.6252 S.o2        1 SU3       0.0645
     38 CBN        -7.8851   -7.3786   13.1506 C.3         1 SU3       0.1004
     39 OBO        -8.1342   -4.7078   12.6487 O.2         1 SU3      -0.1503
     40 OBP        -8.4003   -5.3090   15.1032 O.2         1 SU3      -0.1503
     41 CBQ        -6.3780   -7.3301   12.8476 C.3         1 SU3      -0.0268
     42 CBR        -6.8832   -8.0148   14.1230 C.3         1 SU3      -0.0268
     43 CBS       -10.6234    1.4356    7.2037 C.3         1 SU3      -0.0433
     44 CBT        -9.2787    0.8989    6.6399 C.3         1 SU3      -0.0507
     45 CBU        -9.3444   -0.5549    6.0809 C.3         1 SU3      -0.0453
     46 CBV        -8.0003   -1.2077    5.5816 C.3         1 SU3      -0.0072
     47 CBW        -8.2674   -2.7103    5.2132 C.3         1 SU3       0.0824
     48 CBX        -7.4856   -0.4777    4.2964 C.3         1 SU3      -0.0574
     49 CBY        -6.8798   -1.1565    6.6731 C.3         1 SU3      -0.0574
     50 CBZ        -9.8664   -7.6665    9.4696 C.3         1 SU3      -0.0558
     51 CCA       -11.9235   -8.2200    8.0916 C.3         1 SU3      -0.0558
     52 CD1       -13.8775   -4.7144    8.2276 C.3         1 SU3       0.0677
     53 OD2       -14.7260   -2.4531    8.4892 O.3         1 SU3      -0.2338
     54 H1        -13.0767   -3.5740   10.9407 H           1 SU3       0.0803
     55 H2        -15.4051   -3.3371   10.8699 H           1 SU3       0.0342
     56 H3        -15.6931   -5.0326   10.4252 H           1 SU3       0.0342
     57 H4        -15.9707   -4.1051    8.2836 H           1 SU3       0.0673
     58 H5        -11.7508   -5.7819    7.1739 H           1 SU3       0.0805
     59 H6         -9.2247   -4.8551    8.2930 H           1 SU3       0.1899
     60 H7        -14.1057   -6.3452   17.1856 H           1 SU3       0.0265
     61 H8        -12.8535   -7.4807   16.6513 H           1 SU3       0.0265
     62 H9        -11.8817   -5.7681   18.1493 H           1 SU3       0.0230
     63 H10       -12.4259   -4.4413   17.0865 H           1 SU3       0.0230
     64 H11       -11.1860   -5.6121   16.5185 H           1 SU3       0.0230
     65 H12        -9.5290   -8.8427    6.9571 H           1 SU3       0.0237
     66 H13        -8.7465   -7.2618    6.9976 H           1 SU3       0.0237
     67 H14       -10.1820   -7.5122    5.9911 H           1 SU3       0.0237
     68 H15       -12.7952   -4.3432   13.0121 H           1 SU3       0.1839
     69 H16       -14.3720   -5.3235   15.0010 H           1 SU3       0.0312
     70 H17       -13.4174   -8.2459   14.4864 H           1 SU3       0.0279
     71 H18       -14.6949   -7.2165   13.5612 H           1 SU3       0.0279
     72 H19       -16.6940    1.1352    8.9324 H           1 SU3       0.0373
     73 H20       -13.2216   -0.5272    7.4161 H           1 SU3       0.0361
     74 H21       -16.2191    3.8271    8.1219 H           1 SU3       0.0557
     75 H22       -14.6132    5.2463    6.9642 H           1 SU3       0.0599
     76 H23       -12.5793    4.3128    6.0705 H           1 SU3       0.0557
     77 H24       -11.2684    2.4180    5.3886 H           1 SU3       0.0426
     78 H25       -11.9614    0.8185    5.5871 H           1 SU3       0.0426
     79 H26       -10.6766   -5.2362   12.6519 H           1 SU3       0.2148
     80 H27        -8.4456   -8.0794   12.5265 H           1 SU3       0.0559
     81 H28        -5.8726   -6.3716   12.9936 H           1 SU3       0.0285
     82 H29        -6.0357   -7.9984   12.0520 H           1 SU3       0.0285
     83 H30        -6.8177   -9.1052   14.1089 H           1 SU3       0.0285
     84 H31        -6.6508   -7.4777   15.0454 H           1 SU3       0.0285
     85 H32       -11.0119    0.7222    7.9350 H           1 SU3       0.0287
     86 H33       -10.4126    2.3673    7.7377 H           1 SU3       0.0287
     87 H34        -8.5595    0.9269    7.4612 H           1 SU3       0.0267
     88 H35        -8.9219    1.5797    5.8646 H           1 SU3       0.0267
     89 H36       -10.0572   -0.5707    5.2534 H           1 SU3       0.0271
     90 H37        -9.7685   -1.1808    6.8667 H           1 SU3       0.0271
     91 H38        -9.0067   -2.7654    4.4101 H           1 SU3       0.0617
     92 H39        -7.3493   -3.1677    4.8343 H           1 SU3       0.0617
     93 H40        -7.2267    0.5618    4.5079 H           1 SU3       0.0236
     94 H41        -8.2489   -0.4852    3.5138 H           1 SU3       0.0236
     95 H42        -6.5920   -0.9679    3.9014 H           1 SU3       0.0236
     96 H43        -7.2407   -1.5689    7.6173 H           1 SU3       0.0236
     97 H44        -6.5474   -0.1323    6.8520 H           1 SU3       0.0236
     98 H45        -6.0056   -1.7328    6.3605 H           1 SU3       0.0236
     99 H46       -10.5214   -7.5619   10.3391 H           1 SU3       0.0237
    100 H47        -9.0133   -6.9970    9.6000 H           1 SU3       0.0237
    101 H48        -9.4965   -8.6966    9.4656 H           1 SU3       0.0237
    102 H49       -12.4489   -8.0852    7.1412 H           1 SU3       0.0237
    103 H50       -12.6127   -7.9535    8.8975 H           1 SU3       0.0237
    104 H51       -11.6809   -9.2828    8.1925 H           1 SU3       0.0237
    105 H52       -14.2432   -5.7035    7.9352 H           1 SU3       0.0553
    106 H53       -13.4260   -4.2275    7.3594 H           1 SU3       0.0553
@<TRIPOS>BOND
     1     1     3   2
     2     1     4   1
     3    21     1  am
     4     4     2   1
     5     2     7  am
     6     2    52   1
     7     4     5   1
     8     5     6   1
     9     6    52   1
    10     6    53   1
    11     7     8   2
    12     7     9   1
    13     9    10   1
    14     9    13   1
    15    10    11  am
    16    11    12   1
    17    11    14   2
    18    12    47   1
    19    13    20   1
    20    13    50   1
    21    13    51   1
    22    15    16   2
    23    15    17  am
    24    53    15   1
    25    17    26   1
    26    17    29   1
    27    18    19   1
    28    24    18   1
    29    22    21   1
    30    22    23   1
    31    22    24   1
    32    22    25   1
    33    23    35  am
    34    23    36   2
    35    24    25   1
    36    26    27   2
    37    27    28  ar
    38    27    30  ar
    39    28    29   2
    40    28    33  ar
    41    30    31  ar
    42    31    32  ar
    43    32    33  ar
    44    33    34   1
    45    34    43   1
    46    35    37  am
    47    37    38   1
    48    37    39   2
    49    37    40   2
    50    38    41   1
    51    38    42   1
    52    41    42   1
    53    43    44   1
    54    44    45   1
    55    45    46   1
    56    46    47   1
    57    46    48   1
    58    46    49   1
    59     4    54   1
    60     5    55   1
    61     5    56   1
    62     6    57   1
    63     9    58   1
    64    10    59   1
    65    18    60   1
    66    18    61   1
    67    19    62   1
    68    19    63   1
    69    19    64   1
    70    20    65   1
    71    20    66   1
    72    20    67   1
    73    21    68   1
    74    24    69   1
    75    25    70   1
    76    25    71   1
    77    26    72   1
    78    29    73   1
    79    30    74   1
    80    31    75   1
    81    32    76   1
    82    34    77   1
    83    34    78   1
    84    35    79   1
    85    38    80   1
    86    41    81   1
    87    41    82   1
    88    42    83   1
    89    42    84   1
    90    43    85   1
    91    43    86   1
    92    44    87   1
    93    44    88   1
    94    45    89   1
    95    45    90   1
    96    47    91   1
    97    47    92   1
    98    48    93   1
    99    48    94   1
   100    48    95   1
   101    49    96   1
   102    49    97   1
   103    49    98   1
   104    50    99   1
   105    50   100   1
   106    50   101   1
   107    51   102   1
   108    51   103   1
   109    51   104   1
   110    52   105   1
   111    52   106   1
@<TRIPOS>SUBSTRUCTURE
     1  SU3      1

