@<TRIPOS>MOLECULE
3su5_ligand_006
   106   111
SMALL
GAST_HUCK
****
This file was generated by PARSER (from files_GN.cpp)

@<TRIPOS>ATOM
      1 C         -12.3088   -6.0606   10.2540 C.2         1 SU3       0.2013
      2 N         -10.1518   -5.8840    9.1619 N.am        1 SU3      -0.2469
      3 O         -12.2964   -7.2226   10.6459 O.2         1 SU3      -0.3947
      4 CA        -11.5809   -5.7109    9.0317 C.3         1 SU3       0.1363
      5 CB        -12.0127   -6.5868    7.8262 C.3         1 SU3       0.0206
      6 CG        -10.7078   -6.8426    7.0535 C.3         1 SU3       0.1158
      7 CAF        -9.4180   -5.2770   10.1152 C.2         1 SU3       0.2070
      8 OAG        -9.9510   -4.3925   10.7774 O.2         1 SU3      -0.3942
      9 CAH        -8.0187   -5.5718   10.4535 C.3         1 SU3       0.1378
     10 NAI        -7.2709   -4.3553   10.2997 N.am        1 SU3      -0.2407
     11 CAJ        -6.3599   -4.0886    9.3428 C.2         1 SU3       0.3218
     12 OAK        -5.7162   -2.8989    9.4163 O.3         1 SU3      -0.2633
     13 CAL        -7.7880   -6.2304   11.8792 C.3         1 SU3       0.0025
     14 OAM        -6.0885   -4.9667    8.3480 O.2         1 SU3      -0.3774
     15 CAO       -11.1073   -5.6515    4.8661 C.2         1 SU3       0.4317
     16 OAP       -12.1539   -6.4518    4.5430 O.2         1 SU3      -0.3166
     17 NAQ       -10.7006   -4.6738    4.0164 N.am        1 SU3      -0.2080
     18 CAR       -15.7402   -4.2348   13.5004 C.3         1 SU3      -0.0516
     19 CAS       -15.2163   -2.8636   13.9675 C.3         1 SU3      -0.0651
     20 CAT        -8.1820   -5.2920   13.0725 C.3         1 SU3      -0.0558
     21 NAV       -12.8589   -5.1011   10.9881 N.am        1 SU3      -0.2737
     22 CAX       -13.4596   -5.2757   12.2807 C.3         1 SU3       0.1374
     23 CAY       -12.6613   -4.8686   13.4340 C.2         1 SU3       0.2444
     24 CAZ       -14.9360   -4.7845   12.2856 C.3         1 SU3      -0.0066
     25 CBA       -14.6259   -6.2895   12.3415 C.3         1 SU3      -0.0152
     26 CBB       -11.2635   -4.3691    2.8235 C.2         1 SU3       0.0383
     27 CBC       -10.5492   -3.3301    2.2422 C.ar        1 SU3      -0.0374
     28 CBD        -9.5211   -2.9893    3.1177 C.ar        1 SU3      -0.0293
     29 CBE        -9.6485   -3.8448    4.2109 C.2         1 SU3       0.0366
     30 CBF       -10.7110   -2.6665    1.0130 C.ar        1 SU3      -0.0689
     31 CBG        -9.8012   -1.6449    0.6788 C.ar        1 SU3      -0.0688
     32 CBH        -8.7553   -1.2995    1.5619 C.ar        1 SU3      -0.0606
     33 CBI        -8.5956   -1.9653    2.8062 C.ar        1 SU3      -0.0432
     34 CBJ        -7.4890   -1.6042    3.7331 C.3         1 SU3      -0.0194
     35 NBK       -13.0698   -5.0909   14.6765 N.am        1 SU3      -0.1552
     36 OBL       -11.6004   -4.2838   13.2284 O.2         1 SU3      -0.3404
     37 SBM       -12.3199   -4.5847   16.1037 S.o2        1 SU3       0.0645
     38 CBN       -11.8800   -5.9366   17.2184 C.3         1 SU3       0.1004
     39 OBO       -10.9559   -3.8017   15.8581 O.2         1 SU3      -0.1503
     40 OBP       -13.2834   -3.5848   16.8751 O.2         1 SU3      -0.1503
     41 CBQ       -13.0386   -6.7917   17.7545 C.3         1 SU3      -0.0268
     42 CBR       -12.0580   -7.3848   16.7321 C.3         1 SU3      -0.0268
     43 CBS        -7.9840   -0.7756    4.9507 C.3         1 SU3      -0.0433
     44 CBT        -6.8559   -0.3206    5.9203 C.3         1 SU3      -0.0507
     45 CBU        -6.2514   -1.4660    6.7830 C.3         1 SU3      -0.0453
     46 CBV        -5.1128   -1.0904    7.8055 C.3         1 SU3      -0.0072
     47 CBW        -4.6754   -2.3885    8.5672 C.3         1 SU3       0.0824
     48 CBX        -3.8570   -0.5300    7.0586 C.3         1 SU3      -0.0574
     49 CBY        -5.6029   -0.0310    8.8456 C.3         1 SU3      -0.0574
     50 CBZ        -8.6155   -7.5539   12.0054 C.3         1 SU3      -0.0558
     51 CCA        -6.2738   -6.6013   12.0393 C.3         1 SU3      -0.0558
     52 CD1        -9.6295   -6.7588    8.1517 C.3         1 SU3       0.0677
     53 OD2       -10.4503   -5.8518    6.0433 O.3         1 SU3      -0.2338
     54 H1        -11.7638   -4.6628    8.7675 H           1 SU3       0.0803
     55 H2        -12.7606   -6.0751    7.2146 H           1 SU3       0.0342
     56 H3        -12.4284   -7.5502    8.1433 H           1 SU3       0.0342
     57 H4        -10.7043   -7.8353    6.5929 H           1 SU3       0.0673
     58 H5         -7.6375   -6.3077    9.7427 H           1 SU3       0.0805
     59 H6         -7.4311   -3.6551   10.9522 H           1 SU3       0.1899
     60 H7        -16.7812   -4.1260   13.1832 H           1 SU3       0.0265
     61 H8        -15.7250   -4.9313   14.3468 H           1 SU3       0.0265
     62 H9        -15.8671   -2.4828   14.7628 H           1 SU3       0.0230
     63 H10       -15.2214   -2.1579   13.1274 H           1 SU3       0.0230
     64 H11       -14.1971   -2.9709   14.3580 H           1 SU3       0.0230
     65 H12        -7.8998   -5.7401   14.0291 H           1 SU3       0.0237
     66 H13        -9.2587   -5.1209   13.0978 H           1 SU3       0.0237
     67 H14        -7.6775   -4.3290   12.9923 H           1 SU3       0.0237
     68 H15       -12.7989   -4.1900   10.6518 H           1 SU3       0.1839
     69 H16       -15.3109   -4.4711   11.3042 H           1 SU3       0.0312
     70 H17       -14.7730   -6.8020   13.2949 H           1 SU3       0.0279
     71 H18       -14.8242   -6.8480   11.4234 H           1 SU3       0.0279
     72 H19       -12.0741   -4.8276    2.4011 H           1 SU3       0.0373
     73 H20        -9.0273   -3.8508    5.0232 H           1 SU3       0.0361
     74 H21       -11.4660   -2.9228    0.3748 H           1 SU3       0.0557
     75 H22        -9.8978   -1.1507   -0.2135 H           1 SU3       0.0599
     76 H23        -8.1101   -0.5523    1.2901 H           1 SU3       0.0557
     77 H24        -6.7294   -1.0207    3.2048 H           1 SU3       0.0426
     78 H25        -7.0046   -2.5232    4.0675 H           1 SU3       0.0426
     79 H26       -13.9114   -5.5665   14.7917 H           1 SU3       0.2148
     80 H27       -11.0871   -5.7662   17.9504 H           1 SU3       0.0559
     81 H28       -14.0395   -6.5711   17.3765 H           1 SU3       0.0285
     82 H29       -12.9190   -7.1429   18.7809 H           1 SU3       0.0285
     83 H30       -11.3473   -8.1083   17.1356 H           1 SU3       0.0285
     84 H31       -12.4754   -7.5464   15.7366 H           1 SU3       0.0285
     85 H32        -8.7283   -1.3430    5.5154 H           1 SU3       0.0287
     86 H33        -8.4799    0.1225    4.5702 H           1 SU3       0.0287
     87 H34        -7.2855    0.4301    6.5870 H           1 SU3       0.0267
     88 H35        -6.0722    0.1648    5.3364 H           1 SU3       0.0267
     89 H36        -5.8581   -2.2290    6.1074 H           1 SU3       0.0271
     90 H37        -7.0763   -1.9257    7.3342 H           1 SU3       0.0271
     91 H38        -4.3470   -3.1502    7.8522 H           1 SU3       0.0617
     92 H39        -3.8240   -2.1770    9.2191 H           1 SU3       0.0617
     93 H40        -4.0766    0.4209    6.5732 H           1 SU3       0.0236
     94 H41        -3.5151   -1.2336    6.2969 H           1 SU3       0.0236
     95 H42        -3.0341   -0.3597    7.7574 H           1 SU3       0.0236
     96 H43        -6.5332   -0.3535    9.3198 H           1 SU3       0.0236
     97 H44        -5.7817    0.9349    8.3714 H           1 SU3       0.0236
     98 H45        -4.8557    0.1182    9.6287 H           1 SU3       0.0236
     99 H46        -8.3614   -8.2497   11.2012 H           1 SU3       0.0237
    100 H47        -9.6857   -7.3512   11.9532 H           1 SU3       0.0237
    101 H48        -8.4180   -8.0505   12.9579 H           1 SU3       0.0237
    102 H49        -5.6432   -5.7115   11.9901 H           1 SU3       0.0237
    103 H50        -5.9553   -7.2846   11.2481 H           1 SU3       0.0237
    104 H51        -6.0846   -7.0911   12.9983 H           1 SU3       0.0237
    105 H52        -9.4411   -7.7453    8.5862 H           1 SU3       0.0553
    106 H53        -8.7034   -6.3765    7.7131 H           1 SU3       0.0553
@<TRIPOS>BOND
     1     1     3   2
     2     1     4   1
     3    21     1  am
     4     4     2   1
     5     2     7  am
     6     2    52   1
     7     4     5   1
     8     5     6   1
     9     6    52   1
    10     6    53   1
    11     7     8   2
    12     7     9   1
    13     9    10   1
    14     9    13   1
    15    10    11  am
    16    11    12   1
    17    11    14   2
    18    12    47   1
    19    13    20   1
    20    13    50   1
    21    13    51   1
    22    15    16   2
    23    15    17  am
    24    53    15   1
    25    17    26   1
    26    17    29   1
    27    18    19   1
    28    24    18   1
    29    22    21   1
    30    22    23   1
    31    22    24   1
    32    22    25   1
    33    23    35  am
    34    23    36   2
    35    24    25   1
    36    26    27   2
    37    27    28  ar
    38    27    30  ar
    39    28    29   2
    40    28    33  ar
    41    30    31  ar
    42    31    32  ar
    43    32    33  ar
    44    33    34   1
    45    34    43   1
    46    35    37  am
    47    37    38   1
    48    37    39   2
    49    37    40   2
    50    38    41   1
    51    38    42   1
    52    41    42   1
    53    43    44   1
    54    44    45   1
    55    45    46   1
    56    46    47   1
    57    46    48   1
    58    46    49   1
    59     4    54   1
    60     5    55   1
    61     5    56   1
    62     6    57   1
    63     9    58   1
    64    10    59   1
    65    18    60   1
    66    18    61   1
    67    19    62   1
    68    19    63   1
    69    19    64   1
    70    20    65   1
    71    20    66   1
    72    20    67   1
    73    21    68   1
    74    24    69   1
    75    25    70   1
    76    25    71   1
    77    26    72   1
    78    29    73   1
    79    30    74   1
    80    31    75   1
    81    32    76   1
    82    34    77   1
    83    34    78   1
    84    35    79   1
    85    38    80   1
    86    41    81   1
    87    41    82   1
    88    42    83   1
    89    42    84   1
    90    43    85   1
    91    43    86   1
    92    44    87   1
    93    44    88   1
    94    45    89   1
    95    45    90   1
    96    47    91   1
    97    47    92   1
    98    48    93   1
    99    48    94   1
   100    48    95   1
   101    49    96   1
   102    49    97   1
   103    49    98   1
   104    50    99   1
   105    50   100   1
   106    50   101   1
   107    51   102   1
   108    51   103   1
   109    51   104   1
   110    52   105   1
   111    52   106   1
@<TRIPOS>SUBSTRUCTURE
     1  SU3      1

