@<TRIPOS>MOLECULE
3su5_ligand_037
   106   111
SMALL
GAST_HUCK
****
This file was generated by PARSER (from files_GN.cpp)

@<TRIPOS>ATOM
      1 C         -13.6490   -7.9924   12.7627 C.2         1 SU3       0.2013
      2 N         -15.3583   -9.4333   13.7107 N.am        1 SU3      -0.2469
      3 O         -14.4255   -7.8340   11.8290 O.2         1 SU3      -0.3947
      4 CA        -14.0155   -8.9137   13.8378 C.3         1 SU3       0.1363
      5 CB        -13.1251  -10.1759   13.8465 C.3         1 SU3       0.0206
      6 CG        -13.9290  -11.2449   13.0871 C.3         1 SU3       0.1158
      7 CAF       -16.4553   -8.7555   14.0910 C.2         1 SU3       0.2070
      8 OAG       -16.3006   -7.7620   14.7918 O.2         1 SU3      -0.3942
      9 CAH       -17.8487   -9.1654   13.8561 C.3         1 SU3       0.1378
     10 NAI       -18.3787   -9.6486   15.1097 N.am        1 SU3      -0.2407
     11 CAJ       -18.8284  -10.9047   15.3528 C.2         1 SU3       0.3218
     12 OAK       -19.3924  -11.1641   16.5630 O.3         1 SU3      -0.2633
     13 CAL       -18.7915   -8.0852   13.1815 C.3         1 SU3       0.0025
     14 OAM       -18.8001  -11.8642   14.3976 O.2         1 SU3      -0.3774
     15 CAO       -12.7596  -13.3243   13.8844 C.2         1 SU3       0.4317
     16 OAP       -11.6011  -13.0201   13.2537 O.2         1 SU3      -0.3166
     17 NAQ       -12.8532  -14.3903   14.7132 N.am        1 SU3      -0.2080
     18 CAR        -9.6919   -4.9142   11.5447 C.3         1 SU3      -0.0516
     19 CAS        -8.2520   -4.7929   12.0919 C.3         1 SU3      -0.0651
     20 CAT       -18.5049   -6.6069   13.6306 C.3         1 SU3      -0.0558
     21 NAV       -12.4833   -7.3493   12.8098 N.am        1 SU3      -0.2737
     22 CAX       -11.9043   -6.4648   11.8253 C.3         1 SU3       0.1374
     23 CAY       -12.6987   -5.4490   11.1520 C.2         1 SU3       0.2444
     24 CAZ       -10.3788   -6.2258   12.0021 C.3         1 SU3      -0.0066
     25 CBA       -10.8767   -7.1959   10.9218 C.3         1 SU3      -0.0152
     26 CBB       -11.8745  -15.2830   14.9806 C.2         1 SU3       0.0383
     27 CBC       -12.3555  -16.2000   15.9086 C.ar        1 SU3      -0.0374
     28 CBD       -13.6652  -15.8363   16.2222 C.ar        1 SU3      -0.0293
     29 CBE       -13.9416  -14.7143   15.4502 C.2         1 SU3       0.0366
     30 CBF       -11.7542  -17.3223   16.4983 C.ar        1 SU3      -0.0689
     31 CBG       -12.5070  -18.0848   17.4152 C.ar        1 SU3      -0.0688
     32 CBH       -13.8276  -17.7070   17.7474 C.ar        1 SU3      -0.0606
     33 CBI       -14.4330  -16.5600   17.1665 C.ar        1 SU3      -0.0432
     34 CBJ       -15.8055  -16.1204   17.5469 C.3         1 SU3      -0.0194
     35 NBK       -13.5252   -5.8294   10.1877 N.am        1 SU3      -0.1552
     36 OBL       -12.7159   -4.3191   11.6292 O.2         1 SU3      -0.3404
     37 SBM       -14.7775   -4.9255    9.5198 S.o2        1 SU3       0.0645
     38 CBN       -16.1902   -5.9475    9.0434 C.3         1 SU3       0.1004
     39 OBO       -15.2643   -3.7857   10.5203 O.2         1 SU3      -0.1503
     40 OBP       -14.1874   -4.1186    8.2798 O.2         1 SU3      -0.1503
     41 CBQ       -16.4208   -6.2897    7.5673 C.3         1 SU3      -0.0268
     42 CBR       -15.8575   -7.3559    8.5130 C.3         1 SU3      -0.0268
     43 CBS       -15.7874  -14.8667   18.4695 C.3         1 SU3      -0.0433
     44 CBT       -17.1930  -14.3693   18.9153 C.3         1 SU3      -0.0507
     45 CBU       -17.9961  -13.6008   17.8231 C.3         1 SU3      -0.0453
     46 CBV       -19.4408  -13.0952   18.2056 C.3         1 SU3      -0.0072
     47 CBW       -20.0733  -12.3662   16.9715 C.3         1 SU3       0.0824
     48 CBX       -20.3671  -14.3046   18.5672 C.3         1 SU3      -0.0574
     49 CBY       -19.4013  -12.1047   19.4138 C.3         1 SU3      -0.0574
     50 CBZ       -18.6575   -8.1618   11.6161 C.3         1 SU3      -0.0558
     51 CCA       -20.2878   -8.4045   13.5429 C.3         1 SU3      -0.0558
     52 CD1       -15.3841  -10.7430   13.1367 C.3         1 SU3       0.0677
     53 OD2       -13.8379  -12.5112   13.7442 O.3         1 SU3      -0.2338
     54 H1        -13.8860   -8.3972   14.7954 H           1 SU3       0.0803
     55 H2        -12.9646  -10.4964   14.8815 H           1 SU3       0.0342
     56 H3        -12.1432  -10.0236   13.3920 H           1 SU3       0.0342
     57 H4        -13.6009  -11.3276   12.0498 H           1 SU3       0.0673
     58 H5        -17.8489   -9.9912   13.1461 H           1 SU3       0.0805
     59 H6        -18.4674   -8.9965   15.8219 H           1 SU3       0.1899
     60 H7         -9.6564   -4.8398   10.4557 H           1 SU3       0.0265
     61 H8        -10.2890   -4.0805   11.9149 H           1 SU3       0.0265
     62 H9         -7.8131   -3.8521   11.7525 H           1 SU3       0.0230
     63 H10        -7.6362   -5.6184   11.7289 H           1 SU3       0.0230
     64 H11        -8.2529   -4.8025   13.1851 H           1 SU3       0.0230
     65 H12       -19.3037   -5.9343   13.3096 H           1 SU3       0.0237
     66 H13       -17.5771   -6.2229   13.2008 H           1 SU3       0.0237
     67 H14       -18.4256   -6.5391   14.7159 H           1 SU3       0.0237
     68 H15       -11.9256   -7.5294   13.5885 H           1 SU3       0.1839
     69 H16        -9.9317   -6.7307   12.8613 H           1 SU3       0.0312
     70 H17       -10.7658   -6.8484    9.8913 H           1 SU3       0.0279
     71 H18       -10.6936   -8.2507   11.1347 H           1 SU3       0.0279
     72 H19       -10.9324  -15.2950   14.5820 H           1 SU3       0.0373
     73 H20       -14.8305  -14.2100   15.4539 H           1 SU3       0.0361
     74 H21       -10.7963  -17.5888   16.2622 H           1 SU3       0.0557
     75 H22       -12.0941  -18.9120   17.8440 H           1 SU3       0.0599
     76 H23       -14.3449  -18.2686   18.4246 H           1 SU3       0.0557
     77 H24       -16.3233  -16.9270   18.0699 H           1 SU3       0.0426
     78 H25       -16.3728  -15.9144   16.6367 H           1 SU3       0.0426
     79 H26       -13.4717   -6.7568    9.8959 H           1 SU3       0.2148
     80 H27       -17.0684   -5.9447    9.6911 H           1 SU3       0.0559
     81 H28       -15.7090   -5.8916    6.8423 H           1 SU3       0.0285
     82 H29       -17.4557   -6.4477    7.2670 H           1 SU3       0.0285
     83 H30       -16.5637   -8.1467    8.7942 H           1 SU3       0.0285
     84 H31       -14.8043   -7.6089    8.3422 H           1 SU3       0.0285
     85 H32       -15.2607  -14.0445   17.9799 H           1 SU3       0.0287
     86 H33       -15.2208  -15.1242   19.3698 H           1 SU3       0.0287
     87 H34       -17.0426  -13.7027   19.7673 H           1 SU3       0.0267
     88 H35       -17.7609  -15.2315   19.2684 H           1 SU3       0.0267
     89 H36       -18.0802  -14.2507   16.9483 H           1 SU3       0.0271
     90 H37       -17.3951  -12.7386   17.5210 H           1 SU3       0.0271
     91 H38       -20.1515  -13.0733   16.1414 H           1 SU3       0.0617
     92 H39       -21.0921  -12.0587   17.2164 H           1 SU3       0.0617
     93 H40       -20.0412  -14.8038   19.4802 H           1 SU3       0.0236
     94 H41       -20.3759  -15.0439   17.7631 H           1 SU3       0.0236
     95 H42       -21.3949  -13.9731   18.7268 H           1 SU3       0.0236
     96 H43       -18.7043  -11.2894   19.2179 H           1 SU3       0.0236
     97 H44       -19.0930  -12.6080   20.3306 H           1 SU3       0.0236
     98 H45       -20.3883  -11.6729   19.5920 H           1 SU3       0.0236
     99 H46       -18.9452   -9.1563   11.2644 H           1 SU3       0.0237
    100 H47       -17.6335   -7.9698   11.2847 H           1 SU3       0.0237
    101 H48       -19.3077   -7.4263   11.1318 H           1 SU3       0.0237
    102 H49       -20.4679   -8.2591   14.6143 H           1 SU3       0.0237
    103 H50       -20.5375   -9.4401   13.2945 H           1 SU3       0.0237
    104 H51       -20.9788   -7.7529   12.9989 H           1 SU3       0.0237
    105 H52       -15.8135  -10.7067   12.1334 H           1 SU3       0.0553
    106 H53       -15.9921  -11.4059   13.7559 H           1 SU3       0.0553
@<TRIPOS>BOND
     1     1     3   2
     2     1     4   1
     3    21     1  am
     4     4     2   1
     5     2     7  am
     6     2    52   1
     7     4     5   1
     8     5     6   1
     9     6    52   1
    10     6    53   1
    11     7     8   2
    12     7     9   1
    13     9    10   1
    14     9    13   1
    15    10    11  am
    16    11    12   1
    17    11    14   2
    18    12    47   1
    19    13    20   1
    20    13    50   1
    21    13    51   1
    22    15    16   2
    23    15    17  am
    24    53    15   1
    25    17    26   1
    26    17    29   1
    27    18    19   1
    28    24    18   1
    29    22    21   1
    30    22    23   1
    31    22    24   1
    32    22    25   1
    33    23    35  am
    34    23    36   2
    35    24    25   1
    36    26    27   2
    37    27    28  ar
    38    27    30  ar
    39    28    29   2
    40    28    33  ar
    41    30    31  ar
    42    31    32  ar
    43    32    33  ar
    44    33    34   1
    45    34    43   1
    46    35    37  am
    47    37    38   1
    48    37    39   2
    49    37    40   2
    50    38    41   1
    51    38    42   1
    52    41    42   1
    53    43    44   1
    54    44    45   1
    55    45    46   1
    56    46    47   1
    57    46    48   1
    58    46    49   1
    59     4    54   1
    60     5    55   1
    61     5    56   1
    62     6    57   1
    63     9    58   1
    64    10    59   1
    65    18    60   1
    66    18    61   1
    67    19    62   1
    68    19    63   1
    69    19    64   1
    70    20    65   1
    71    20    66   1
    72    20    67   1
    73    21    68   1
    74    24    69   1
    75    25    70   1
    76    25    71   1
    77    26    72   1
    78    29    73   1
    79    30    74   1
    80    31    75   1
    81    32    76   1
    82    34    77   1
    83    34    78   1
    84    35    79   1
    85    38    80   1
    86    41    81   1
    87    41    82   1
    88    42    83   1
    89    42    84   1
    90    43    85   1
    91    43    86   1
    92    44    87   1
    93    44    88   1
    94    45    89   1
    95    45    90   1
    96    47    91   1
    97    47    92   1
    98    48    93   1
    99    48    94   1
   100    48    95   1
   101    49    96   1
   102    49    97   1
   103    49    98   1
   104    50    99   1
   105    50   100   1
   106    50   101   1
   107    51   102   1
   108    51   103   1
   109    51   104   1
   110    52   105   1
   111    52   106   1
@<TRIPOS>SUBSTRUCTURE
     1  SU3      1

