@<TRIPOS>MOLECULE
3su5_ligand_025
   106   111
SMALL
GAST_HUCK
****
This file was generated by PARSER (from files_GN.cpp)

@<TRIPOS>ATOM
      1 C         -10.6693   -5.5760   10.5513 C.2         1 SU3       0.2013
      2 N         -12.8935   -6.0237   11.3120 N.am        1 SU3      -0.2469
      3 O         -10.6743   -4.3866   10.8522 O.2         1 SU3      -0.3947
      4 CA        -11.9427   -6.2251   10.2421 C.3         1 SU3       0.1363
      5 CB        -12.6058   -5.6689    8.9546 C.3         1 SU3       0.0206
      6 CG        -13.9227   -5.0007    9.3981 C.3         1 SU3       0.1158
      7 CAF       -12.7657   -6.5805   12.5339 C.2         1 SU3       0.2070
      8 OAG       -11.9462   -7.4841   12.6560 O.2         1 SU3      -0.3942
      9 CAH       -13.5756   -6.2754   13.7301 C.3         1 SU3       0.1378
     10 NAI       -14.3366   -7.4568   14.0360 N.am        1 SU3      -0.2407
     11 CAJ       -15.6857   -7.5424   14.0893 C.2         1 SU3       0.3218
     12 OAK       -16.2255   -8.7288   14.4689 O.3         1 SU3      -0.2633
     13 CAL       -12.7821   -5.7155   14.9912 C.3         1 SU3       0.0025
     14 OAM       -16.4862   -6.4817   13.8218 O.2         1 SU3      -0.3774
     15 CAO       -15.5513   -5.6555    7.5725 C.2         1 SU3       0.4317
     16 OAP       -14.8820   -4.9770    6.6085 O.2         1 SU3      -0.3166
     17 NAQ       -16.6884   -6.3387    7.2863 N.am        1 SU3      -0.2080
     18 CAR        -7.1018   -5.2704   13.3987 C.3         1 SU3      -0.0516
     19 CAS        -7.5118   -5.4480   14.8803 C.3         1 SU3      -0.0651
     20 CAT       -12.3256   -4.2481   14.6978 C.3         1 SU3      -0.0558
     21 NAV        -9.5331   -6.2627   10.5317 N.am        1 SU3      -0.2737
     22 CAX        -8.2596   -5.7470   10.9493 C.3         1 SU3       0.1374
     23 CAY        -7.7076   -4.6248   10.1821 C.2         1 SU3       0.2444
     24 CAZ        -7.9492   -6.1344   12.4256 C.3         1 SU3      -0.0066
     25 CBA        -7.2312   -6.8509   11.2652 C.3         1 SU3      -0.0152
     26 CBB       -17.2929   -6.4223    6.0786 C.2         1 SU3       0.0383
     27 CBC       -18.4303   -7.2115    6.1999 C.ar        1 SU3      -0.0374
     28 CBD       -18.5091   -7.6272    7.5280 C.ar        1 SU3      -0.0293
     29 CBE       -17.4160   -7.0581    8.1742 C.2         1 SU3       0.0366
     30 CBF       -19.3985   -7.5955    5.2588 C.ar        1 SU3      -0.0689
     31 CBG       -20.4604   -8.4169    5.6856 C.ar        1 SU3      -0.0688
     32 CBH       -20.5401   -8.8442    7.0303 C.ar        1 SU3      -0.0606
     33 CBI       -19.5595   -8.4611    7.9822 C.ar        1 SU3      -0.0432
     34 CBJ       -19.6313   -8.9267    9.3945 C.3         1 SU3      -0.0194
     35 NBK        -6.7230   -3.8488   10.6252 N.am        1 SU3      -0.1552
     36 OBL        -8.1979   -4.4016    9.0818 O.2         1 SU3      -0.3404
     37 SBM        -6.2727   -2.3479    9.9890 S.o2        1 SU3       0.0645
     38 CBN        -7.0147   -0.8843   10.7517 C.3         1 SU3       0.1004
     39 OBO        -4.6957   -2.2101   10.1531 O.2         1 SU3      -0.1503
     40 OBP        -6.4724   -2.3052    8.4114 O.2         1 SU3      -0.1503
     41 CBQ        -8.1188   -1.0483   11.8066 C.3         1 SU3      -0.0268
     42 CBR        -6.6958   -0.6832   12.2432 C.3         1 SU3      -0.0268
     43 CBS       -18.5845  -10.0343    9.7019 C.3         1 SU3      -0.0433
     44 CBT       -18.6541  -10.6088   11.1442 C.3         1 SU3      -0.0507
     45 CBU       -18.1409   -9.6433   12.2554 C.3         1 SU3      -0.0453
     46 CBV       -18.1403  -10.1782   13.7379 C.3         1 SU3      -0.0072
     47 CBW       -17.6116   -9.0448   14.6842 C.3         1 SU3       0.0824
     48 CBX       -19.5896  -10.5489   14.1970 C.3         1 SU3      -0.0574
     49 CBY       -17.2191  -11.4306   13.8979 C.3         1 SU3      -0.0574
     50 CBZ       -13.7145   -5.6776   16.2520 C.3         1 SU3      -0.0558
     51 CCA       -11.5083   -6.5432   15.3734 C.3         1 SU3      -0.0558
     52 CD1       -13.9543   -5.1409   10.9341 C.3         1 SU3       0.0677
     53 OD2       -15.0854   -5.6408    8.8504 O.3         1 SU3      -0.2338
     54 H1        -11.7838   -7.2995   10.0941 H           1 SU3       0.0803
     55 H2        -12.8114   -6.4897    8.2608 H           1 SU3       0.0342
     56 H3        -11.9731   -4.9458    8.4307 H           1 SU3       0.0342
     57 H4        -13.9338   -3.9416    9.1214 H           1 SU3       0.0673
     58 H5        -14.2796   -5.4819   13.4749 H           1 SU3       0.0805
     59 H6        -13.8363   -8.2582   14.2584 H           1 SU3       0.1899
     60 H7         -6.0489   -5.5404   13.2905 H           1 SU3       0.0265
     61 H8         -7.2224   -4.2164   13.1540 H           1 SU3       0.0265
     62 H9         -6.8610   -4.8500   15.5170 H           1 SU3       0.0230
     63 H10        -7.4240   -6.4933   15.1738 H           1 SU3       0.0230
     64 H11        -8.5391   -5.1153   15.0287 H           1 SU3       0.0230
     65 H12       -11.7438   -3.8422   15.5298 H           1 SU3       0.0237
     66 H13       -13.1878   -3.5939   14.5424 H           1 SU3       0.0237
     67 H14       -11.7053   -4.2111   13.7997 H           1 SU3       0.0237
     68 H15        -9.5707   -7.1998   10.2742 H           1 SU3       0.1839
     69 H16        -8.7069   -6.7759   12.8918 H           1 SU3       0.0312
     70 H17        -6.1738   -6.6097   11.1230 H           1 SU3       0.0279
     71 H18        -7.5423   -7.8875   11.1154 H           1 SU3       0.0279
     72 H19       -16.9786   -5.9781    5.2135 H           1 SU3       0.0373
     73 H20       -17.2019   -7.1720    9.1686 H           1 SU3       0.0361
     74 H21       -19.3367   -7.2853    4.2874 H           1 SU3       0.0557
     75 H22       -21.1772   -8.7091    5.0164 H           1 SU3       0.0599
     76 H23       -21.3184   -9.4482    7.3074 H           1 SU3       0.0557
     77 H24       -20.6271   -9.3239    9.6101 H           1 SU3       0.0426
     78 H25       -19.4834   -8.0684   10.0524 H           1 SU3       0.0426
     79 H26        -6.2594   -4.1200   11.4285 H           1 SU3       0.2148
     80 H27        -7.0448    0.0415   10.1711 H           1 SU3       0.0559
     81 H28        -8.4291   -2.0670   12.0479 H           1 SU3       0.0285
     82 H29        -8.8412   -0.2345   11.8965 H           1 SU3       0.0285
     83 H30        -6.5512    0.3516   12.5628 H           1 SU3       0.0285
     84 H31        -6.1573   -1.4798   12.7619 H           1 SU3       0.0285
     85 H32       -17.5751   -9.6604    9.5206 H           1 SU3       0.0287
     86 H33       -18.7548  -10.8613    9.0066 H           1 SU3       0.0287
     87 H34       -18.0436  -11.5143   11.1617 H           1 SU3       0.0267
     88 H35       -19.6857  -10.9017   11.3500 H           1 SU3       0.0267
     89 H36       -18.7515   -8.7375   12.2202 H           1 SU3       0.0271
     90 H37       -17.1215   -9.3493   11.9893 H           1 SU3       0.0271
     91 H38       -18.2356   -8.1537   14.5751 H           1 SU3       0.0617
     92 H39       -17.6911   -9.3619   15.7270 H           1 SU3       0.0617
     93 H40       -19.9780  -11.3995   13.6356 H           1 SU3       0.0236
     94 H41       -20.2695   -9.7061   14.0546 H           1 SU3       0.0236
     95 H42       -19.6054  -10.8219   15.2543 H           1 SU3       0.0236
     96 H43       -16.2196  -11.2292   13.5070 H           1 SU3       0.0236
     97 H44       -17.6251  -12.2916   13.3657 H           1 SU3       0.0236
     98 H45       -17.1235  -11.7071   14.9505 H           1 SU3       0.0236
     99 H46       -13.9682   -6.6886   16.5802 H           1 SU3       0.0237
    100 H47       -14.6437   -5.1466   16.0356 H           1 SU3       0.0237
    101 H48       -13.2245   -5.1726   17.0896 H           1 SU3       0.0237
    102 H49       -10.7301   -6.4336   14.6164 H           1 SU3       0.0237
    103 H50       -11.7481   -7.6031   15.4757 H           1 SU3       0.0237
    104 H51       -11.0839   -6.1956   16.3201 H           1 SU3       0.0237
    105 H52       -13.8027   -4.1667   11.4072 H           1 SU3       0.0553
    106 H53       -14.9245   -5.5393   11.2471 H           1 SU3       0.0553
@<TRIPOS>BOND
     1     1     3   2
     2     1     4   1
     3    21     1  am
     4     4     2   1
     5     2     7  am
     6     2    52   1
     7     4     5   1
     8     5     6   1
     9     6    52   1
    10     6    53   1
    11     7     8   2
    12     7     9   1
    13     9    10   1
    14     9    13   1
    15    10    11  am
    16    11    12   1
    17    11    14   2
    18    12    47   1
    19    13    20   1
    20    13    50   1
    21    13    51   1
    22    15    16   2
    23    15    17  am
    24    53    15   1
    25    17    26   1
    26    17    29   1
    27    18    19   1
    28    24    18   1
    29    22    21   1
    30    22    23   1
    31    22    24   1
    32    22    25   1
    33    23    35  am
    34    23    36   2
    35    24    25   1
    36    26    27   2
    37    27    28  ar
    38    27    30  ar
    39    28    29   2
    40    28    33  ar
    41    30    31  ar
    42    31    32  ar
    43    32    33  ar
    44    33    34   1
    45    34    43   1
    46    35    37  am
    47    37    38   1
    48    37    39   2
    49    37    40   2
    50    38    41   1
    51    38    42   1
    52    41    42   1
    53    43    44   1
    54    44    45   1
    55    45    46   1
    56    46    47   1
    57    46    48   1
    58    46    49   1
    59     4    54   1
    60     5    55   1
    61     5    56   1
    62     6    57   1
    63     9    58   1
    64    10    59   1
    65    18    60   1
    66    18    61   1
    67    19    62   1
    68    19    63   1
    69    19    64   1
    70    20    65   1
    71    20    66   1
    72    20    67   1
    73    21    68   1
    74    24    69   1
    75    25    70   1
    76    25    71   1
    77    26    72   1
    78    29    73   1
    79    30    74   1
    80    31    75   1
    81    32    76   1
    82    34    77   1
    83    34    78   1
    84    35    79   1
    85    38    80   1
    86    41    81   1
    87    41    82   1
    88    42    83   1
    89    42    84   1
    90    43    85   1
    91    43    86   1
    92    44    87   1
    93    44    88   1
    94    45    89   1
    95    45    90   1
    96    47    91   1
    97    47    92   1
    98    48    93   1
    99    48    94   1
   100    48    95   1
   101    49    96   1
   102    49    97   1
   103    49    98   1
   104    50    99   1
   105    50   100   1
   106    50   101   1
   107    51   102   1
   108    51   103   1
   109    51   104   1
   110    52   105   1
   111    52   106   1
@<TRIPOS>SUBSTRUCTURE
     1  SU3      1

