@<TRIPOS>MOLECULE
3su5_ligand_034
   106   111
SMALL
GAST_HUCK
****
This file was generated by PARSER (from files_GN.cpp)

@<TRIPOS>ATOM
      1 C          -8.8973   -9.0790    7.7487 C.2         1 SU3       0.2013
      2 N          -9.6018   -7.4931    9.3879 N.am        1 SU3      -0.2469
      3 O          -8.2468   -8.4688    6.9056 O.2         1 SU3      -0.3947
      4 CA        -10.0383   -8.4199    8.3693 C.3         1 SU3       0.1363
      5 CB        -10.8931   -7.5646    7.3938 C.3         1 SU3       0.0206
      6 CG        -10.3563   -6.1309    7.5677 C.3         1 SU3       0.1158
      7 CAF        -9.2358   -7.8670   10.6316 C.2         1 SU3       0.2070
      8 OAG        -9.3657   -9.0462   10.9282 O.2         1 SU3      -0.3942
      9 CAH        -8.8188   -6.9747   11.7362 C.3         1 SU3       0.1378
     10 NAI        -9.8576   -7.0294   12.7405 N.am        1 SU3      -0.2407
     11 CAJ       -10.4581   -5.9489   13.3030 C.2         1 SU3       0.3218
     12 OAK       -11.3448   -6.1396   14.3097 O.3         1 SU3      -0.2633
     13 CAL        -7.3440   -7.1920   12.3277 C.3         1 SU3       0.0025
     14 OAM       -10.1464   -4.6900   12.9132 O.2         1 SU3      -0.3774
     15 CAO       -12.2346   -4.6708    6.6338 C.2         1 SU3       0.4317
     16 OAP       -12.0534   -4.9944    5.3316 O.2         1 SU3      -0.3166
     17 NAQ       -13.2247   -3.8452    7.0462 N.am        1 SU3      -0.2080
     18 CAR        -7.0705  -12.7411    5.4960 C.3         1 SU3      -0.0516
     19 CAS        -6.2620  -12.5607    4.1977 C.3         1 SU3      -0.0651
     20 CAT        -6.8285   -8.6689   12.2698 C.3         1 SU3      -0.0558
     21 NAV        -8.5394  -10.2993    8.1465 N.am        1 SU3      -0.2737
     22 CAX        -7.4615  -11.1401    7.6944 C.3         1 SU3       0.1374
     23 CAY        -7.2319  -12.2677    8.5655 C.2         1 SU3       0.2444
     24 CAZ        -7.3850  -11.3838    6.1631 C.3         1 SU3      -0.0066
     25 CBA        -6.2290  -10.6725    6.8866 C.3         1 SU3      -0.0152
     26 CBB       -14.0991   -3.1578    6.2752 C.2         1 SU3       0.0383
     27 CBC       -14.9430   -2.4255    7.1066 C.ar        1 SU3      -0.0374
     28 CBD       -14.5785   -2.7096    8.4238 C.ar        1 SU3      -0.0293
     29 CBE       -13.5027   -3.5827    8.3450 C.2         1 SU3       0.0366
     30 CBF       -15.9858   -1.5338    6.8254 C.ar        1 SU3      -0.0689
     31 CBG       -16.6567   -0.9216    7.9032 C.ar        1 SU3      -0.0688
     32 CBH       -16.2899   -1.2203    9.2352 C.ar        1 SU3      -0.0606
     33 CBI       -15.2528   -2.1394    9.5287 C.ar        1 SU3      -0.0432
     34 CBJ       -14.8943   -2.4968   10.9345 C.3         1 SU3      -0.0194
     35 NBK        -7.9619  -13.3662    8.4336 N.am        1 SU3      -0.1552
     36 OBL        -6.3922  -12.1322    9.4463 O.2         1 SU3      -0.3404
     37 SBM        -7.8247  -14.7550    9.3814 S.o2        1 SU3       0.0645
     38 CBN        -6.1704  -15.4790    9.4914 C.3         1 SU3       0.1004
     39 OBO        -8.5497  -14.5399   10.7737 O.2         1 SU3      -0.1503
     40 OBP        -8.6954  -15.8537    8.6223 O.2         1 SU3      -0.1503
     41 CBQ        -5.1466  -14.8183   10.4296 C.3         1 SU3      -0.0268
     42 CBR        -5.7799  -16.1590   10.8130 C.3         1 SU3      -0.0268
     43 CBS       -15.3190   -3.9438   11.3163 C.3         1 SU3      -0.0433
     44 CBT       -15.1870   -4.2905   12.8280 C.3         1 SU3      -0.0507
     45 CBU       -13.7293   -4.5449   13.3168 C.3         1 SU3      -0.0453
     46 CBV       -13.5269   -4.9745   14.8208 C.3         1 SU3      -0.0072
     47 CBW       -11.9881   -5.1271   15.1079 C.3         1 SU3       0.0824
     48 CBX       -14.0832   -3.8775   15.7884 C.3         1 SU3      -0.0574
     49 CBY       -14.2300   -6.3314   15.1343 C.3         1 SU3      -0.0574
     50 CBZ        -6.3136   -6.3061   11.5283 C.3         1 SU3      -0.0558
     51 CCA        -7.2520   -6.7460   13.8280 C.3         1 SU3      -0.0558
     52 CD1        -9.6884   -6.1347    8.9563 C.3         1 SU3       0.0677
     53 OD2       -11.4172   -5.1788    7.5875 O.3         1 SU3      -0.2338
     54 H1        -10.7100   -9.1700    8.7965 H           1 SU3       0.0803
     55 H2        -11.9457   -7.6081    7.6841 H           1 SU3       0.0342
     56 H3        -10.8136   -7.8956    6.3538 H           1 SU3       0.0342
     57 H4         -9.6245   -5.8826    6.7944 H           1 SU3       0.0673
     58 H5         -8.8256   -5.9583   11.3546 H           1 SU3       0.0805
     59 H6        -10.0433   -7.8946   13.1411 H           1 SU3       0.1899
     60 H7         -6.5003  -13.3932    6.1639 H           1 SU3       0.0265
     61 H8         -8.0192  -13.2297    5.2644 H           1 SU3       0.0265
     62 H9         -6.0720  -13.5355    3.7431 H           1 SU3       0.0230
     63 H10        -5.3038  -12.0858    4.4133 H           1 SU3       0.0230
     64 H11        -6.8141  -11.9381    3.4854 H           1 SU3       0.0230
     65 H12        -5.8637   -8.7755   12.7706 H           1 SU3       0.0237
     66 H13        -6.7077   -8.9891   11.2376 H           1 SU3       0.0237
     67 H14        -7.5317   -9.3475   12.7544 H           1 SU3       0.0237
     68 H15        -9.0942  -10.6808    8.8466 H           1 SU3       0.1839
     69 H16        -7.9960  -10.7067    5.5544 H           1 SU3       0.0312
     70 H17        -5.3089  -11.2559    6.9669 H           1 SU3       0.0279
     71 H18        -6.1160   -9.6177    6.6317 H           1 SU3       0.0279
     72 H19       -14.1288   -3.1519    5.2536 H           1 SU3       0.0373
     73 H20       -13.0051   -3.9626    9.1531 H           1 SU3       0.0361
     74 H21       -16.2484   -1.3209    5.8591 H           1 SU3       0.0557
     75 H22       -17.4147   -0.2613    7.7200 H           1 SU3       0.0599
     76 H23       -16.7980   -0.7593    9.9932 H           1 SU3       0.0557
     77 H24       -15.3792   -1.8013   11.6269 H           1 SU3       0.0426
     78 H25       -13.8177   -2.3807   11.0665 H           1 SU3       0.0426
     79 H26        -8.6012  -13.3887    7.7070 H           1 SU3       0.2148
     80 H27        -5.7399  -15.9315    8.5964 H           1 SU3       0.0559
     81 H28        -5.4734  -13.9823   11.0455 H           1 SU3       0.0285
     82 H29        -4.1007  -14.8621   10.1078 H           1 SU3       0.0285
     83 H30        -5.1057  -17.0192   10.7426 H           1 SU3       0.0285
     84 H31        -6.4948  -16.1081   11.6371 H           1 SU3       0.0285
     85 H32       -14.7414   -4.6694   10.7380 H           1 SU3       0.0287
     86 H33       -16.3664   -4.0775   11.0378 H           1 SU3       0.0287
     87 H34       -15.7747   -5.1947   13.0038 H           1 SU3       0.0267
     88 H35       -15.6425   -3.4847   13.4076 H           1 SU3       0.0267
     89 H36       -13.1552   -3.6317   13.1332 H           1 SU3       0.0271
     90 H37       -13.3041   -5.3229   12.6759 H           1 SU3       0.0271
     91 H38       -11.5012   -4.1553   14.9704 H           1 SU3       0.0617
     92 H39       -11.8251   -5.4051   16.1520 H           1 SU3       0.0617
     93 H40       -15.1680   -3.7885   15.7063 H           1 SU3       0.0236
     94 H41       -13.6448   -2.9051   15.5617 H           1 SU3       0.0236
     95 H42       -13.8523   -4.1204   16.8291 H           1 SU3       0.0236
     96 H43       -13.9148   -7.1065   14.4335 H           1 SU3       0.0236
     97 H44       -15.3170   -6.2349   15.0687 H           1 SU3       0.0236
     98 H45       -13.9954   -6.6710   16.1473 H           1 SU3       0.0236
     99 H46        -6.5330   -5.2468   11.6673 H           1 SU3       0.0237
    100 H47        -6.3745   -6.5205   10.4602 H           1 SU3       0.0237
    101 H48        -5.2880   -6.4729   11.8583 H           1 SU3       0.0237
    102 H49        -7.8667   -7.3948   14.4603 H           1 SU3       0.0237
    103 H50        -7.6006   -5.7193   13.9489 H           1 SU3       0.0237
    104 H51        -6.2309   -6.8034   14.2021 H           1 SU3       0.0237
    105 H52        -8.6882   -5.6904    8.9028 H           1 SU3       0.0553
    106 H53       -10.2973   -5.5580    9.6620 H           1 SU3       0.0553
@<TRIPOS>BOND
     1     1     3   2
     2     1     4   1
     3    21     1  am
     4     4     2   1
     5     2     7  am
     6     2    52   1
     7     4     5   1
     8     5     6   1
     9     6    52   1
    10     6    53   1
    11     7     8   2
    12     7     9   1
    13     9    10   1
    14     9    13   1
    15    10    11  am
    16    11    12   1
    17    11    14   2
    18    12    47   1
    19    13    20   1
    20    13    50   1
    21    13    51   1
    22    15    16   2
    23    15    17  am
    24    53    15   1
    25    17    26   1
    26    17    29   1
    27    18    19   1
    28    24    18   1
    29    22    21   1
    30    22    23   1
    31    22    24   1
    32    22    25   1
    33    23    35  am
    34    23    36   2
    35    24    25   1
    36    26    27   2
    37    27    28  ar
    38    27    30  ar
    39    28    29   2
    40    28    33  ar
    41    30    31  ar
    42    31    32  ar
    43    32    33  ar
    44    33    34   1
    45    34    43   1
    46    35    37  am
    47    37    38   1
    48    37    39   2
    49    37    40   2
    50    38    41   1
    51    38    42   1
    52    41    42   1
    53    43    44   1
    54    44    45   1
    55    45    46   1
    56    46    47   1
    57    46    48   1
    58    46    49   1
    59     4    54   1
    60     5    55   1
    61     5    56   1
    62     6    57   1
    63     9    58   1
    64    10    59   1
    65    18    60   1
    66    18    61   1
    67    19    62   1
    68    19    63   1
    69    19    64   1
    70    20    65   1
    71    20    66   1
    72    20    67   1
    73    21    68   1
    74    24    69   1
    75    25    70   1
    76    25    71   1
    77    26    72   1
    78    29    73   1
    79    30    74   1
    80    31    75   1
    81    32    76   1
    82    34    77   1
    83    34    78   1
    84    35    79   1
    85    38    80   1
    86    41    81   1
    87    41    82   1
    88    42    83   1
    89    42    84   1
    90    43    85   1
    91    43    86   1
    92    44    87   1
    93    44    88   1
    94    45    89   1
    95    45    90   1
    96    47    91   1
    97    47    92   1
    98    48    93   1
    99    48    94   1
   100    48    95   1
   101    49    96   1
   102    49    97   1
   103    49    98   1
   104    50    99   1
   105    50   100   1
   106    50   101   1
   107    51   102   1
   108    51   103   1
   109    51   104   1
   110    52   105   1
   111    52   106   1
@<TRIPOS>SUBSTRUCTURE
     1  SU3      1

