@<TRIPOS>MOLECULE
3su5_ligand_070
   106   111
SMALL
GAST_HUCK
****
This file was generated by PARSER (from files_GN.cpp)

@<TRIPOS>ATOM
      1 C         -14.4054   -4.8114   12.0971 C.2         1 SU3       0.2013
      2 N         -12.8386   -4.8960   10.2814 N.am        1 SU3      -0.2469
      3 O         -15.5815   -5.1487   12.0027 O.2         1 SU3      -0.3947
      4 CA        -13.7590   -4.0579   11.0218 C.3         1 SU3       0.1363
      5 CB        -14.6990   -3.5076    9.9187 C.3         1 SU3       0.0206
      6 CG        -14.7779   -4.6438    8.8860 C.3         1 SU3       0.1158
      7 CAF       -11.5525   -5.1191   10.6236 C.2         1 SU3       0.2070
      8 OAG       -11.0674   -4.4390   11.5195 O.2         1 SU3      -0.3942
      9 CAH       -10.6140   -6.0016    9.9062 C.3         1 SU3       0.1378
     10 NAI        -9.8972   -5.1239    9.0134 N.am        1 SU3      -0.2407
     11 CAJ        -9.7259   -5.2700    7.6801 C.2         1 SU3       0.3218
     12 OAK        -8.9060   -4.3808    7.0573 O.3         1 SU3      -0.2633
     13 CAL        -9.6589   -6.9713   10.7614 C.3         1 SU3       0.0025
     14 OAM       -10.2601   -6.3175    7.0083 O.2         1 SU3      -0.3774
     15 CAO       -16.0302   -3.5813    6.9825 C.2         1 SU3       0.4317
     16 OAP       -17.1963   -3.5558    7.6702 O.2         1 SU3      -0.3166
     17 NAQ       -15.9263   -2.9998    5.7612 N.am        1 SU3      -0.2080
     18 CAR       -13.3384   -6.5148   16.8552 C.3         1 SU3      -0.0516
     19 CAS       -11.9235   -6.4824   17.4739 C.3         1 SU3      -0.0651
     20 CAT        -8.1646   -6.4905   10.7735 C.3         1 SU3      -0.0558
     21 NAV       -13.7168   -5.1220   13.1874 N.am        1 SU3      -0.2737
     22 CAX       -14.2107   -5.8768   14.3095 C.3         1 SU3       0.1374
     23 CAY       -14.7127   -7.2310   14.0727 C.2         1 SU3       0.2444
     24 CAZ       -13.4665   -5.5509   15.6372 C.3         1 SU3      -0.0066
     25 CBA       -14.8859   -5.0089   15.3899 C.3         1 SU3      -0.0152
     26 CBB       -16.9192   -2.3899    5.0772 C.2         1 SU3       0.0383
     27 CBC       -16.3901   -1.8399    3.9168 C.ar        1 SU3      -0.0374
     28 CBD       -15.0273   -2.1303    3.9026 C.ar        1 SU3      -0.0293
     29 CBE       -14.7814   -2.8751    5.0538 C.2         1 SU3       0.0366
     30 CBF       -16.9821   -1.0934    2.8833 C.ar        1 SU3      -0.0689
     31 CBG       -16.1641   -0.6331    1.8317 C.ar        1 SU3      -0.0688
     32 CBH       -14.7798   -0.9165    1.8252 C.ar        1 SU3      -0.0606
     33 CBI       -14.1809   -1.6691    2.8666 C.ar        1 SU3      -0.0432
     34 CBJ       -12.7157   -1.9350    2.8869 C.3         1 SU3      -0.0194
     35 NBK       -14.2626   -7.8978   13.0222 N.am        1 SU3      -0.1552
     36 OBL       -15.6104   -7.6946   14.7665 O.2         1 SU3      -0.3404
     37 SBM       -14.8577   -9.3812   12.4773 S.o2        1 SU3       0.0645
     38 CBN       -14.3151  -10.8606   13.3623 C.3         1 SU3       0.1004
     39 OBO       -16.4387   -9.3471   12.3098 O.2         1 SU3      -0.1503
     40 OBP       -14.3627   -9.5221   10.9724 O.2         1 SU3      -0.1503
     41 CBQ       -12.9113  -10.8103   13.9842 C.3         1 SU3      -0.0268
     42 CBR       -14.1507  -10.8022   14.8872 C.3         1 SU3      -0.0268
     43 CBS       -11.9721   -1.0699    3.9446 C.3         1 SU3      -0.0433
     44 CBT       -10.4488   -1.3543    4.0586 C.3         1 SU3      -0.0507
     45 CBU       -10.0902   -2.6892    4.7794 C.3         1 SU3      -0.0453
     46 CBV        -8.5628   -3.0333    4.9507 C.3         1 SU3      -0.0072
     47 CBW        -8.4294   -4.4070    5.6990 C.3         1 SU3       0.0824
     48 CBX        -7.8662   -3.1828    3.5551 C.3         1 SU3      -0.0574
     49 CBY        -7.8098   -1.9311    5.7660 C.3         1 SU3      -0.0574
     50 CBZ       -10.0798   -7.1560   12.2640 C.3         1 SU3      -0.0558
     51 CCA        -9.6692   -8.4072   10.1262 C.3         1 SU3      -0.0558
     52 CD1       -13.4195   -5.3549    9.0478 C.3         1 SU3       0.0677
     53 OD2       -14.9288   -4.1343    7.5543 O.3         1 SU3      -0.2338
     54 H1        -13.2533   -3.1986   11.4732 H           1 SU3       0.0803
     55 H2        -14.2430   -2.6253    9.4563 H           1 SU3       0.0342
     56 H3        -15.6880   -3.2234   10.2886 H           1 SU3       0.0342
     57 H4        -15.5944   -5.3320    9.1309 H           1 SU3       0.0673
     58 H5        -11.2291   -6.6554    9.2885 H           1 SU3       0.0805
     59 H6         -9.4172   -4.3903    9.4259 H           1 SU3       0.1899
     60 H7        -14.0509   -6.2290   17.6334 H           1 SU3       0.0265
     61 H8        -13.5607   -7.5381   16.5515 H           1 SU3       0.0265
     62 H9        -11.8686   -7.1453   18.3419 H           1 SU3       0.0230
     63 H10       -11.6803   -5.4689   17.7991 H           1 SU3       0.0230
     64 H11       -11.1823   -6.8034   16.7397 H           1 SU3       0.0230
     65 H12        -7.5314   -7.1608   11.3595 H           1 SU3       0.0237
     66 H13        -8.0883   -5.4915   11.2059 H           1 SU3       0.0237
     67 H14        -7.7514   -6.4526    9.7638 H           1 SU3       0.0237
     68 H15       -12.8008   -4.8044   13.2386 H           1 SU3       0.1839
     69 H16       -12.7308   -4.7414   15.5759 H           1 SU3       0.0312
     70 H17       -15.6849   -5.4691   15.9718 H           1 SU3       0.0279
     71 H18       -14.9476   -3.9364   15.1957 H           1 SU3       0.0279
     72 H19       -17.8970   -2.3124    5.3673 H           1 SU3       0.0373
     73 H20       -13.8642   -3.2308    5.3301 H           1 SU3       0.0361
     74 H21       -17.9824   -0.8784    2.8996 H           1 SU3       0.0557
     75 H22       -16.5740   -0.0820    1.0752 H           1 SU3       0.0599
     76 H23       -14.2095   -0.5550    1.0569 H           1 SU3       0.0557
     77 H24       -12.2784   -1.7263    1.9061 H           1 SU3       0.0426
     78 H25       -12.5604   -2.9978    3.0807 H           1 SU3       0.0426
     79 H26       -13.5724   -7.4775   12.4850 H           1 SU3       0.2148
     80 H27       -14.5917  -11.8344   12.9538 H           1 SU3       0.0559
     81 H28       -12.3714   -9.8622   13.9338 H           1 SU3       0.0285
     82 H29       -12.3479  -11.7440   13.9824 H           1 SU3       0.0285
     83 H30       -14.3431  -11.7299   15.4264 H           1 SU3       0.0285
     84 H31       -14.3593   -9.8510   15.3792 H           1 SU3       0.0285
     85 H32       -12.4252   -1.1980    4.9290 H           1 SU3       0.0287
     86 H33       -12.0994   -0.0200    3.6664 H           1 SU3       0.0287
     87 H34       -10.0080   -0.5288    4.6204 H           1 SU3       0.0267
     88 H35       -10.0176   -1.3371    3.0557 H           1 SU3       0.0267
     89 H36       -10.5616   -3.5071    4.2318 H           1 SU3       0.0271
     90 H37       -10.5556   -2.6621    5.7684 H           1 SU3       0.0271
     91 H38        -8.9390   -5.1897    5.1306 H           1 SU3       0.0617
     92 H39        -7.3738   -4.6924    5.7536 H           1 SU3       0.0617
     93 H40        -7.8481   -2.2352    3.0153 H           1 SU3       0.0236
     94 H41        -8.3880   -3.9174    2.9387 H           1 SU3       0.0236
     95 H42        -6.8303   -3.5108    3.6706 H           1 SU3       0.0236
     96 H43        -8.3215   -1.7218    6.7058 H           1 SU3       0.0236
     97 H44        -7.7458   -0.9978    5.2041 H           1 SU3       0.0236
     98 H45        -6.7900   -2.2473    5.9974 H           1 SU3       0.0236
     99 H46       -11.1354   -7.4285   12.3329 H           1 SU3       0.0237
    100 H47        -9.9125   -6.2409   12.8368 H           1 SU3       0.0237
    101 H48        -9.4946   -7.9409   12.7516 H           1 SU3       0.0237
    102 H49        -9.4030   -8.3734    9.0675 H           1 SU3       0.0237
    103 H50       -10.6633   -8.8529   10.2042 H           1 SU3       0.0237
    104 H51        -8.9638   -9.0720   10.6278 H           1 SU3       0.0237
    105 H52       -13.5622   -6.4405    9.0681 H           1 SU3       0.0553
    106 H53       -12.7702   -5.0900    8.2050 H           1 SU3       0.0553
@<TRIPOS>BOND
     1     1     3   2
     2     1     4   1
     3    21     1  am
     4     4     2   1
     5     2     7  am
     6     2    52   1
     7     4     5   1
     8     5     6   1
     9     6    52   1
    10     6    53   1
    11     7     8   2
    12     7     9   1
    13     9    10   1
    14     9    13   1
    15    10    11  am
    16    11    12   1
    17    11    14   2
    18    12    47   1
    19    13    20   1
    20    13    50   1
    21    13    51   1
    22    15    16   2
    23    15    17  am
    24    53    15   1
    25    17    26   1
    26    17    29   1
    27    18    19   1
    28    24    18   1
    29    22    21   1
    30    22    23   1
    31    22    24   1
    32    22    25   1
    33    23    35  am
    34    23    36   2
    35    24    25   1
    36    26    27   2
    37    27    28  ar
    38    27    30  ar
    39    28    29   2
    40    28    33  ar
    41    30    31  ar
    42    31    32  ar
    43    32    33  ar
    44    33    34   1
    45    34    43   1
    46    35    37  am
    47    37    38   1
    48    37    39   2
    49    37    40   2
    50    38    41   1
    51    38    42   1
    52    41    42   1
    53    43    44   1
    54    44    45   1
    55    45    46   1
    56    46    47   1
    57    46    48   1
    58    46    49   1
    59     4    54   1
    60     5    55   1
    61     5    56   1
    62     6    57   1
    63     9    58   1
    64    10    59   1
    65    18    60   1
    66    18    61   1
    67    19    62   1
    68    19    63   1
    69    19    64   1
    70    20    65   1
    71    20    66   1
    72    20    67   1
    73    21    68   1
    74    24    69   1
    75    25    70   1
    76    25    71   1
    77    26    72   1
    78    29    73   1
    79    30    74   1
    80    31    75   1
    81    32    76   1
    82    34    77   1
    83    34    78   1
    84    35    79   1
    85    38    80   1
    86    41    81   1
    87    41    82   1
    88    42    83   1
    89    42    84   1
    90    43    85   1
    91    43    86   1
    92    44    87   1
    93    44    88   1
    94    45    89   1
    95    45    90   1
    96    47    91   1
    97    47    92   1
    98    48    93   1
    99    48    94   1
   100    48    95   1
   101    49    96   1
   102    49    97   1
   103    49    98   1
   104    50    99   1
   105    50   100   1
   106    50   101   1
   107    51   102   1
   108    51   103   1
   109    51   104   1
   110    52   105   1
   111    52   106   1
@<TRIPOS>SUBSTRUCTURE
     1  SU3      1

