@<TRIPOS>MOLECULE
3su5_ligand_035
   106   111
SMALL
GAST_HUCK
****
This file was generated by PARSER (from files_GN.cpp)

@<TRIPOS>ATOM
      1 C         -13.1577   -9.1272   13.9823 C.2         1 SU3       0.2013
      2 N         -15.2646  -10.3854   14.0197 N.am        1 SU3      -0.2469
      3 O         -12.2680   -8.5832   14.6461 O.2         1 SU3      -0.3947
      4 CA        -13.9529  -10.1789   14.6001 C.3         1 SU3       0.1363
      5 CB        -13.2164  -11.5398   14.5009 C.3         1 SU3       0.0206
      6 CG        -14.3312  -12.5673   14.2460 C.3         1 SU3       0.1158
      7 CAF       -16.2224   -9.4376   13.9693 C.2         1 SU3       0.2070
      8 OAG       -16.0453   -8.4173   14.6272 O.2         1 SU3      -0.3942
      9 CAH       -17.5024   -9.5238   13.2382 C.3         1 SU3       0.1378
     10 NAI       -18.5609   -9.5342   14.2123 N.am        1 SU3      -0.2407
     11 CAJ       -19.5118  -10.4843   14.3590 C.2         1 SU3       0.3218
     12 OAK       -20.5253  -10.2116   15.2154 O.3         1 SU3      -0.2633
     13 CAL       -17.7789   -8.4254   12.1242 C.3         1 SU3       0.0025
     14 OAM       -19.5006  -11.6349   13.6410 O.2         1 SU3      -0.3774
     15 CAO       -14.2220  -14.0500   16.2851 C.2         1 SU3       0.4317
     16 OAP       -12.9409  -14.4164   16.0340 O.2         1 SU3      -0.3166
     17 NAQ       -14.9003  -14.5975   17.3262 N.am        1 SU3      -0.2080
     18 CAR       -10.3101   -7.1198   10.8312 C.3         1 SU3      -0.0516
     19 CAS        -8.9441   -7.5643   11.3955 C.3         1 SU3      -0.0651
     20 CAT       -16.6285   -8.3970   11.0658 C.3         1 SU3      -0.0558
     21 NAV       -13.3759   -8.7296   12.7324 N.am        1 SU3      -0.2737
     22 CAX       -12.6957   -7.6790   12.0449 C.3         1 SU3       0.1374
     23 CAY       -12.7366   -6.3479   12.6289 C.2         1 SU3       0.2444
     24 CAZ       -11.4474   -8.0968   11.2213 C.3         1 SU3      -0.0066
     25 CBA       -12.7867   -7.8424   10.5043 C.3         1 SU3      -0.0152
     26 CBB       -14.4018  -15.4808   18.2228 C.2         1 SU3       0.0383
     27 CBC       -15.4194  -15.8558   19.0952 C.ar        1 SU3      -0.0374
     28 CBD       -16.5674  -15.1660   18.7183 C.ar        1 SU3      -0.0293
     29 CBE       -16.2047  -14.3851   17.6202 C.2         1 SU3       0.0366
     30 CBF       -15.4293  -16.7631   20.1655 C.ar        1 SU3      -0.0689
     31 CBG       -16.6349  -16.9606   20.8665 C.ar        1 SU3      -0.0688
     32 CBH       -17.8058  -16.2695   20.4834 C.ar        1 SU3      -0.0606
     33 CBI       -17.7965  -15.3585   19.3952 C.ar        1 SU3      -0.0432
     34 CBJ       -19.0410  -14.6636   18.9709 C.3         1 SU3      -0.0194
     35 NBK       -12.6704   -6.2392   13.9443 N.am        1 SU3      -0.1552
     36 OBL       -12.8436   -5.3620   11.9061 O.2         1 SU3      -0.3404
     37 SBM       -12.6579   -4.7912   14.8113 S.o2        1 SU3       0.0645
     38 CBN       -12.9537   -5.0658   16.5734 C.3         1 SU3       0.1004
     39 OBO       -11.2349   -4.0984   14.6400 O.2         1 SU3      -0.1503
     40 OBP       -13.8346   -3.8455   14.3097 O.2         1 SU3      -0.1503
     41 CBQ       -13.8122   -6.2717   16.9796 C.3         1 SU3      -0.0268
     42 CBR       -12.3036   -6.2788   17.2525 C.3         1 SU3      -0.0268
     43 CBS       -19.0870  -13.1880   19.4538 C.3         1 SU3      -0.0433
     44 CBT       -20.3838  -12.4295   19.0549 C.3         1 SU3      -0.0507
     45 CBU       -20.4831  -12.0546   17.5492 C.3         1 SU3      -0.0453
     46 CBV       -21.7755  -11.2803   17.0868 C.3         1 SU3      -0.0072
     47 CBW       -21.6707  -11.0158   15.5454 C.3         1 SU3       0.0824
     48 CBX       -23.0635  -12.1296   17.3457 C.3         1 SU3      -0.0574
     49 CBY       -21.9171   -9.9090   17.8241 C.3         1 SU3      -0.0574
     50 CBZ       -19.0981   -8.7906   11.3548 C.3         1 SU3      -0.0558
     51 CCA       -17.9497   -6.9765   12.6951 C.3         1 SU3      -0.0558
     52 CD1       -15.4359  -11.7324   13.5666 C.3         1 SU3       0.0677
     53 OD2       -14.8455  -13.1749   15.4456 O.3         1 SU3      -0.2338
     54 H1        -14.0966   -9.9386   15.6566 H           1 SU3       0.0803
     55 H2        -12.6583  -11.7568   15.4138 H           1 SU3       0.0342
     56 H3        -12.5149  -11.5705   13.6584 H           1 SU3       0.0342
     57 H4        -13.9967  -13.3640   13.5732 H           1 SU3       0.0673
     58 H5        -17.5150  -10.4694   12.6968 H           1 SU3       0.0805
     59 H6        -18.6452   -8.7487   14.7794 H           1 SU3       0.1899
     60 H7        -10.2384   -7.0890    9.7406 H           1 SU3       0.0265
     61 H8        -10.5190   -6.1023   11.1757 H           1 SU3       0.0265
     62 H9         -8.1753   -6.8473   11.0972 H           1 SU3       0.0230
     63 H10        -8.6733   -8.5449   11.0010 H           1 SU3       0.0230
     64 H11        -8.9765   -7.6131   12.4860 H           1 SU3       0.0230
     65 H12       -16.8892   -7.7673   10.2122 H           1 SU3       0.0237
     66 H13       -16.4117   -9.4002   10.6938 H           1 SU3       0.0237
     67 H14       -15.7217   -7.9856   11.4989 H           1 SU3       0.0237
     68 H15       -14.0793   -9.1937   12.2434 H           1 SU3       0.1839
     69 H16       -11.1988   -9.1573   11.2680 H           1 SU3       0.0312
     70 H17       -12.8512   -6.9305    9.9094 H           1 SU3       0.0279
     71 H18       -13.3020   -8.7367   10.1451 H           1 SU3       0.0279
     72 H19       -13.4459  -15.8401   18.2547 H           1 SU3       0.0373
     73 H20       -16.8403  -13.7734   17.1031 H           1 SU3       0.0361
     74 H21       -14.5860  -17.2759   20.4264 H           1 SU3       0.0557
     75 H22       -16.6643  -17.6144   21.6529 H           1 SU3       0.0599
     76 H23       -18.6692  -16.4386   21.0073 H           1 SU3       0.0557
     77 H24       -19.9163  -15.1851   19.3679 H           1 SU3       0.0426
     78 H25       -19.1145  -14.7139   17.8834 H           1 SU3       0.0426
     79 H26       -12.6343   -7.0677   14.4686 H           1 SU3       0.2148
     80 H27       -13.0545   -4.1852   17.2167 H           1 SU3       0.0559
     81 H28       -14.1477   -6.9438   16.1859 H           1 SU3       0.0285
     82 H29       -14.4568   -6.1207   17.8488 H           1 SU3       0.0285
     83 H30       -12.0042   -6.1301   18.2938 H           1 SU3       0.0285
     84 H31       -11.7052   -6.9358   16.6181 H           1 SU3       0.0285
     85 H32       -18.2209  -12.6401   19.0741 H           1 SU3       0.0287
     86 H33       -19.0221  -13.1865   20.5467 H           1 SU3       0.0287
     87 H34       -20.4226  -11.5143   19.6496 H           1 SU3       0.0267
     88 H35       -21.2396  -13.0427   19.3326 H           1 SU3       0.0267
     89 H36       -20.4103  -12.9726   16.9614 H           1 SU3       0.0271
     90 H37       -19.6024  -11.4529   17.3082 H           1 SU3       0.0271
     91 H38       -21.6429  -11.9658   15.0040 H           1 SU3       0.0617
     92 H39       -22.5533  -10.4733   15.1958 H           1 SU3       0.0617
     93 H40       -23.2459  -12.2579   18.4133 H           1 SU3       0.0236
     94 H41       -22.9717  -13.1194   16.8941 H           1 SU3       0.0236
     95 H42       -23.9429  -11.6415   16.9203 H           1 SU3       0.0236
     96 H43       -20.9943   -9.3323   17.7446 H           1 SU3       0.0236
     97 H44       -22.1406  -10.0486   18.8825 H           1 SU3       0.0236
     98 H45       -22.7272   -9.3161   17.3927 H           1 SU3       0.0236
     99 H46       -19.9641   -8.7580   12.0196 H           1 SU3       0.0237
    100 H47       -19.0350   -9.7957   10.9290 H           1 SU3       0.0237
    101 H48       -19.2881   -8.0922   10.5355 H           1 SU3       0.0237
    102 H49       -17.0278   -6.6178   13.1533 H           1 SU3       0.0237
    103 H50       -18.7424   -6.9407   13.4442 H           1 SU3       0.0237
    104 H51       -18.2088   -6.2745   11.8981 H           1 SU3       0.0237
    105 H52       -15.3348  -11.7681   12.4761 H           1 SU3       0.0553
    106 H53       -16.4128  -12.1355   13.8500 H           1 SU3       0.0553
@<TRIPOS>BOND
     1     1     3   2
     2     1     4   1
     3    21     1  am
     4     4     2   1
     5     2     7  am
     6     2    52   1
     7     4     5   1
     8     5     6   1
     9     6    52   1
    10     6    53   1
    11     7     8   2
    12     7     9   1
    13     9    10   1
    14     9    13   1
    15    10    11  am
    16    11    12   1
    17    11    14   2
    18    12    47   1
    19    13    20   1
    20    13    50   1
    21    13    51   1
    22    15    16   2
    23    15    17  am
    24    53    15   1
    25    17    26   1
    26    17    29   1
    27    18    19   1
    28    24    18   1
    29    22    21   1
    30    22    23   1
    31    22    24   1
    32    22    25   1
    33    23    35  am
    34    23    36   2
    35    24    25   1
    36    26    27   2
    37    27    28  ar
    38    27    30  ar
    39    28    29   2
    40    28    33  ar
    41    30    31  ar
    42    31    32  ar
    43    32    33  ar
    44    33    34   1
    45    34    43   1
    46    35    37  am
    47    37    38   1
    48    37    39   2
    49    37    40   2
    50    38    41   1
    51    38    42   1
    52    41    42   1
    53    43    44   1
    54    44    45   1
    55    45    46   1
    56    46    47   1
    57    46    48   1
    58    46    49   1
    59     4    54   1
    60     5    55   1
    61     5    56   1
    62     6    57   1
    63     9    58   1
    64    10    59   1
    65    18    60   1
    66    18    61   1
    67    19    62   1
    68    19    63   1
    69    19    64   1
    70    20    65   1
    71    20    66   1
    72    20    67   1
    73    21    68   1
    74    24    69   1
    75    25    70   1
    76    25    71   1
    77    26    72   1
    78    29    73   1
    79    30    74   1
    80    31    75   1
    81    32    76   1
    82    34    77   1
    83    34    78   1
    84    35    79   1
    85    38    80   1
    86    41    81   1
    87    41    82   1
    88    42    83   1
    89    42    84   1
    90    43    85   1
    91    43    86   1
    92    44    87   1
    93    44    88   1
    94    45    89   1
    95    45    90   1
    96    47    91   1
    97    47    92   1
    98    48    93   1
    99    48    94   1
   100    48    95   1
   101    49    96   1
   102    49    97   1
   103    49    98   1
   104    50    99   1
   105    50   100   1
   106    50   101   1
   107    51   102   1
   108    51   103   1
   109    51   104   1
   110    52   105   1
   111    52   106   1
@<TRIPOS>SUBSTRUCTURE
     1  SU3      1

