@<TRIPOS>MOLECULE
3su5_ligand_041
   106   111
SMALL
GAST_HUCK
****
This file was generated by PARSER (from files_GN.cpp)

@<TRIPOS>ATOM
      1 C         -17.0645   -5.5053   12.1105 C.2         1 SU3       0.2013
      2 N         -14.6628   -5.8093   12.2893 N.am        1 SU3      -0.2469
      3 O         -17.7188   -4.5641   12.5601 O.2         1 SU3      -0.3947
      4 CA        -15.7506   -5.2345   11.5292 C.3         1 SU3       0.1363
      5 CB        -15.5874   -5.8007   10.0972 C.3         1 SU3       0.0206
      6 CG        -14.8171   -7.1168   10.2835 C.3         1 SU3       0.1158
      7 CAF       -14.2241   -5.3202   13.4626 C.2         1 SU3       0.2070
      8 OAG       -14.7944   -4.3259   13.9076 O.2         1 SU3      -0.3942
      9 CAH       -13.0519   -5.8183   14.2084 C.3         1 SU3       0.1378
     10 NAI       -11.8725   -5.2560   13.6014 N.am        1 SU3      -0.2407
     11 CAJ       -10.8091   -5.9460   13.1291 C.2         1 SU3       0.3218
     12 OAK        -9.6473   -5.2684   12.9148 O.3         1 SU3      -0.2633
     13 CAL       -12.9942   -5.6088   15.7846 C.3         1 SU3       0.0025
     14 OAM       -10.8669   -7.2906   12.9621 O.2         1 SU3      -0.3774
     15 CAO       -14.1866   -7.7340    7.9204 C.2         1 SU3       0.4317
     16 OAP       -15.4699   -7.9276    7.5313 O.2         1 SU3      -0.3166
     17 NAQ       -13.1623   -7.8214    7.0357 N.am        1 SU3      -0.2080
     18 CAR       -20.0820   -9.3548   13.5398 C.3         1 SU3      -0.0516
     19 CAS       -20.4690   -9.7758   14.9762 C.3         1 SU3      -0.0651
     20 CAT       -14.2741   -6.2009   16.4583 C.3         1 SU3      -0.0558
     21 NAV       -17.5528   -6.7369   12.1648 N.am        1 SU3      -0.2737
     22 CAX       -18.8731   -7.0983   12.5803 C.3         1 SU3       0.1374
     23 CAY       -19.9491   -6.9053   11.6235 C.2         1 SU3       0.2444
     24 CAZ       -18.9080   -8.3413   13.5099 C.3         1 SU3      -0.0066
     25 CBA       -19.1962   -6.9457   14.0847 C.3         1 SU3      -0.0152
     26 CBB       -13.2539   -8.1216    5.7172 C.2         1 SU3       0.0383
     27 CBC       -11.9857   -8.0390    5.1501 C.ar        1 SU3      -0.0374
     28 CBD       -11.1030   -7.6774    6.1667 C.ar        1 SU3      -0.0293
     29 CBE       -11.8647   -7.5738    7.3229 C.2         1 SU3       0.0366
     30 CBF       -11.5351   -8.2395    3.8353 C.ar        1 SU3      -0.0689
     31 CBG       -10.1636   -8.0677    3.5616 C.ar        1 SU3      -0.0688
     32 CBH        -9.2689   -7.6947    4.5903 C.ar        1 SU3      -0.0606
     33 CBI        -9.7249   -7.4852    5.9166 C.ar        1 SU3      -0.0432
     34 CBJ        -8.7924   -7.0887    7.0072 C.3         1 SU3      -0.0194
     35 NBK       -20.7895   -5.8956   11.7644 N.am        1 SU3      -0.1552
     36 OBL       -20.0369   -7.6971   10.6895 O.2         1 SU3      -0.3404
     37 SBM       -22.1342   -5.6082   10.7866 S.o2        1 SU3       0.0645
     38 CBN       -23.4035   -6.8988   10.8386 C.3         1 SU3       0.1004
     39 OBO       -22.7780   -4.2335   11.2630 O.2         1 SU3      -0.1503
     40 OBP       -21.6642   -5.3285    9.2943 O.2         1 SU3      -0.1503
     41 CBQ       -23.5947   -7.6399   12.1759 C.3         1 SU3      -0.0268
     42 CBR       -24.6711   -6.6632   11.6818 C.3         1 SU3      -0.0268
     43 CBS        -8.9457   -5.5964    7.4252 C.3         1 SU3      -0.0433
     44 CBT        -8.0428   -5.1755    8.6231 C.3         1 SU3      -0.0507
     45 CBU        -8.5880   -5.5863   10.0264 C.3         1 SU3      -0.0453
     46 CBV        -7.7189   -5.1984   11.2810 C.3         1 SU3      -0.0072
     47 CBW        -8.3611   -5.8169   12.5712 C.3         1 SU3       0.0824
     48 CBX        -6.2683   -5.7706   11.1502 C.3         1 SU3      -0.0574
     49 CBY        -7.6337   -3.6495   11.4700 C.3         1 SU3      -0.0574
     50 CBZ       -11.7648   -6.3841   16.3832 C.3         1 SU3      -0.0558
     51 CCA       -12.8405   -4.1042   16.2101 C.3         1 SU3      -0.0558
     52 CD1       -14.0273   -6.8888   11.5867 C.3         1 SU3       0.0677
     53 OD2       -13.9128   -7.3877    9.2093 O.3         1 SU3      -0.2338
     54 H1        -15.6019   -4.1516   11.4631 H           1 SU3       0.0803
     55 H2        -14.9864   -5.1163    9.4977 H           1 SU3       0.0342
     56 H3        -16.5389   -5.9666    9.5851 H           1 SU3       0.0342
     57 H4        -15.5058   -7.9585   10.4136 H           1 SU3       0.0673
     58 H5        -13.0504   -6.9040   14.0849 H           1 SU3       0.0805
     59 H6        -11.7860   -4.2890   13.6426 H           1 SU3       0.1899
     60 H7        -20.9712   -8.9506   13.0539 H           1 SU3       0.0265
     61 H8        -19.7757  -10.2434   12.9857 H           1 SU3       0.0265
     62 H9        -21.1979  -10.5887   14.9390 H           1 SU3       0.0230
     63 H10       -20.9234   -8.9361   15.5093 H           1 SU3       0.0230
     64 H11       -19.5897  -10.1133   15.5321 H           1 SU3       0.0230
     65 H12       -14.2280   -6.1161   17.5482 H           1 SU3       0.0237
     66 H13       -14.3861   -7.2595   16.2057 H           1 SU3       0.0237
     67 H14       -15.1729   -5.6786   16.1282 H           1 SU3       0.0237
     68 H15       -16.9883   -7.4555   11.8395 H           1 SU3       0.1839
     69 H16       -17.9338   -8.7231   13.8301 H           1 SU3       0.0312
     70 H17       -20.2365   -6.7567   14.3661 H           1 SU3       0.0279
     71 H18       -18.4040   -6.5324   14.7132 H           1 SU3       0.0279
     72 H19       -14.1115   -8.3518    5.2057 H           1 SU3       0.0373
     73 H20       -11.4962   -7.3194    8.2409 H           1 SU3       0.0361
     74 H21       -12.1874   -8.5041    3.0927 H           1 SU3       0.0557
     75 H22        -9.8145   -8.2113    2.6121 H           1 SU3       0.0599
     76 H23        -8.2798   -7.5726    4.3598 H           1 SU3       0.0557
     77 H24        -7.7564   -7.2487    6.6963 H           1 SU3       0.0426
     78 H25        -8.9678   -7.7382    7.8654 H           1 SU3       0.0426
     79 H26       -20.6615   -5.3043   12.5189 H           1 SU3       0.2148
     80 H27       -23.5308   -7.5315    9.9604 H           1 SU3       0.0559
     81 H28       -23.0238   -7.2878   13.0374 H           1 SU3       0.0285
     82 H29       -23.8740   -8.6927   12.1119 H           1 SU3       0.0285
     83 H30       -25.5844   -7.1305   11.3089 H           1 SU3       0.0285
     84 H31       -24.7387   -5.7323   12.2502 H           1 SU3       0.0285
     85 H32        -9.9874   -5.3690    7.6691 H           1 SU3       0.0287
     86 H33        -8.6766   -4.9779    6.5605 H           1 SU3       0.0287
     87 H34        -7.9397   -4.0897    8.5947 H           1 SU3       0.0267
     88 H35        -7.0493   -5.5997    8.4604 H           1 SU3       0.0267
     89 H36        -8.7209   -6.6688   10.0219 H           1 SU3       0.0271
     90 H37        -9.5784   -5.1421   10.1398 H           1 SU3       0.0271
     91 H38        -8.4127   -6.9041   12.4670 H           1 SU3       0.0617
     92 H39        -7.7174   -5.6141   13.4307 H           1 SU3       0.0617
     93 H40        -5.7208   -5.2794   10.3432 H           1 SU3       0.0236
     94 H41        -6.2914   -6.8436   10.9443 H           1 SU3       0.0236
     95 H42        -5.6950   -5.6176   12.0693 H           1 SU3       0.0236
     96 H43        -8.6311   -3.2134   11.5504 H           1 SU3       0.0236
     97 H44        -7.1147   -3.1742   10.6348 H           1 SU3       0.0236
     98 H45        -7.0873   -3.3995   12.3813 H           1 SU3       0.0236
     99 H46       -10.8244   -5.9879   15.9974 H           1 SU3       0.0237
    100 H47       -11.8109   -7.4481   16.1332 H           1 SU3       0.0237
    101 H48       -11.7288   -6.2962   17.4740 H           1 SU3       0.0237
    102 H49       -13.7237   -3.5200   15.9626 H           1 SU3       0.0237
    103 H50       -11.9743   -3.6495   15.7224 H           1 SU3       0.0237
    104 H51       -12.7094   -4.0176   17.2904 H           1 SU3       0.0237
    105 H52       -14.0262   -7.8068   12.1836 H           1 SU3       0.0553
    106 H53       -12.9945   -6.6075   11.3534 H           1 SU3       0.0553
@<TRIPOS>BOND
     1     1     3   2
     2     1     4   1
     3    21     1  am
     4     4     2   1
     5     2     7  am
     6     2    52   1
     7     4     5   1
     8     5     6   1
     9     6    52   1
    10     6    53   1
    11     7     8   2
    12     7     9   1
    13     9    10   1
    14     9    13   1
    15    10    11  am
    16    11    12   1
    17    11    14   2
    18    12    47   1
    19    13    20   1
    20    13    50   1
    21    13    51   1
    22    15    16   2
    23    15    17  am
    24    53    15   1
    25    17    26   1
    26    17    29   1
    27    18    19   1
    28    24    18   1
    29    22    21   1
    30    22    23   1
    31    22    24   1
    32    22    25   1
    33    23    35  am
    34    23    36   2
    35    24    25   1
    36    26    27   2
    37    27    28  ar
    38    27    30  ar
    39    28    29   2
    40    28    33  ar
    41    30    31  ar
    42    31    32  ar
    43    32    33  ar
    44    33    34   1
    45    34    43   1
    46    35    37  am
    47    37    38   1
    48    37    39   2
    49    37    40   2
    50    38    41   1
    51    38    42   1
    52    41    42   1
    53    43    44   1
    54    44    45   1
    55    45    46   1
    56    46    47   1
    57    46    48   1
    58    46    49   1
    59     4    54   1
    60     5    55   1
    61     5    56   1
    62     6    57   1
    63     9    58   1
    64    10    59   1
    65    18    60   1
    66    18    61   1
    67    19    62   1
    68    19    63   1
    69    19    64   1
    70    20    65   1
    71    20    66   1
    72    20    67   1
    73    21    68   1
    74    24    69   1
    75    25    70   1
    76    25    71   1
    77    26    72   1
    78    29    73   1
    79    30    74   1
    80    31    75   1
    81    32    76   1
    82    34    77   1
    83    34    78   1
    84    35    79   1
    85    38    80   1
    86    41    81   1
    87    41    82   1
    88    42    83   1
    89    42    84   1
    90    43    85   1
    91    43    86   1
    92    44    87   1
    93    44    88   1
    94    45    89   1
    95    45    90   1
    96    47    91   1
    97    47    92   1
    98    48    93   1
    99    48    94   1
   100    48    95   1
   101    49    96   1
   102    49    97   1
   103    49    98   1
   104    50    99   1
   105    50   100   1
   106    50   101   1
   107    51   102   1
   108    51   103   1
   109    51   104   1
   110    52   105   1
   111    52   106   1
@<TRIPOS>SUBSTRUCTURE
     1  SU3      1

