@<TRIPOS>MOLECULE
3su5_ligand_016
   106   111
SMALL
GAST_HUCK
****
This file was generated by PARSER (from files_GN.cpp)

@<TRIPOS>ATOM
      1 C         -10.1225   -6.7900    6.6419 C.2         1 SU3       0.2013
      2 N         -12.3270   -6.9618    7.7083 N.am        1 SU3      -0.2469
      3 O         -10.6228   -6.1293    5.7337 O.2         1 SU3      -0.3947
      4 CA        -10.9947   -7.5103    7.5610 C.3         1 SU3       0.1363
      5 CB        -11.1958   -8.9684    7.0876 C.3         1 SU3       0.0206
      6 CG        -12.6083   -9.3217    7.5779 C.3         1 SU3       0.1158
      7 CAF       -12.5820   -5.6746    8.0160 C.2         1 SU3       0.2070
      8 OAG       -11.6262   -4.9549    8.3105 O.2         1 SU3      -0.3942
      9 CAH       -13.9021   -5.0217    8.0312 C.3         1 SU3       0.1378
     10 NAI       -14.0573   -4.4407    9.3371 N.am        1 SU3      -0.2407
     11 CAJ       -14.9468   -4.7929   10.2906 C.2         1 SU3       0.3218
     12 OAK       -14.8468   -4.1360   11.4722 O.3         1 SU3      -0.2633
     13 CAL       -14.1556   -3.9546    6.8832 C.3         1 SU3       0.0025
     14 OAM       -15.8732   -5.7621   10.0938 O.2         1 SU3      -0.3774
     15 CAO       -12.1926  -11.0087    9.4100 C.2         1 SU3       0.4317
     16 OAP       -11.7051  -11.9338    8.5467 O.2         1 SU3      -0.3166
     17 NAQ       -12.3129  -11.2891   10.7319 N.am        1 SU3      -0.2080
     18 CAR        -5.4691   -6.7011    4.6878 C.3         1 SU3      -0.0516
     19 CAS        -5.0827   -7.3829    3.3605 C.3         1 SU3      -0.0651
     20 CAT       -14.0098   -4.6287    5.4785 C.3         1 SU3      -0.0558
     21 NAV        -8.7966   -6.8645    6.7666 N.am        1 SU3      -0.2737
     22 CAX        -7.8470   -6.1445    5.9719 C.3         1 SU3       0.1374
     23 CAY        -7.4630   -4.8369    6.4749 C.2         1 SU3       0.2444
     24 CAZ        -6.9170   -7.0490    5.1155 C.3         1 SU3      -0.0066
     25 CBA        -8.0182   -6.2232    4.4334 C.3         1 SU3      -0.0152
     26 CBB       -11.9769  -12.4528   11.3341 C.2         1 SU3       0.0383
     27 CBC       -12.2894  -12.3682   12.6876 C.ar        1 SU3      -0.0374
     28 CBD       -12.8212  -11.0986   12.9110 C.ar        1 SU3      -0.0293
     29 CBE       -12.8227  -10.4581   11.6703 C.2         1 SU3       0.0366
     30 CBF       -12.1769  -13.3059   13.7275 C.ar        1 SU3      -0.0689
     31 CBG       -12.6309  -12.9407   15.0101 C.ar        1 SU3      -0.0688
     32 CBH       -13.1676  -11.6559   15.2389 C.ar        1 SU3      -0.0606
     33 CBI       -13.2656  -10.7023   14.1924 C.ar        1 SU3      -0.0432
     34 CBJ       -13.8491   -9.3506   14.4347 C.3         1 SU3      -0.0194
     35 NBK        -6.2563   -4.6204    6.9861 N.am        1 SU3      -0.1552
     36 OBL        -8.3131   -3.9603    6.5119 O.2         1 SU3      -0.3404
     37 SBM        -5.6744   -3.1150    7.4844 S.o2        1 SU3       0.0645
     38 CBN        -6.2299   -2.5066    9.1006 C.3         1 SU3       0.1004
     39 OBO        -4.0960   -3.3073    7.5430 O.2         1 SU3      -0.1503
     40 OBP        -5.8737   -2.0587    6.3140 O.2         1 SU3      -0.1503
     41 CBQ        -5.2493   -1.6183    9.8906 C.3         1 SU3      -0.0268
     42 CBR        -6.4969   -1.0039    9.2490 C.3         1 SU3      -0.0268
     43 CBS       -12.7783   -8.2255   14.4293 C.3         1 SU3      -0.0433
     44 CBT       -13.3317   -6.8081   14.7614 C.3         1 SU3      -0.0507
     45 CBU       -14.1878   -6.1641   13.6309 C.3         1 SU3      -0.0453
     46 CBV       -14.7762   -4.7249   13.8940 C.3         1 SU3      -0.0072
     47 CBW       -15.6386   -4.2913   12.6573 C.3         1 SU3       0.0824
     48 CBX       -15.7172   -4.7314   15.1403 C.3         1 SU3      -0.0574
     49 CBY       -13.6421   -3.6713   14.1172 C.3         1 SU3      -0.0574
     50 CBZ       -15.6220   -3.4119    6.9933 C.3         1 SU3      -0.0558
     51 CCA       -13.1841   -2.7294    6.9493 C.3         1 SU3      -0.0558
     52 CD1       -13.3360   -7.9635    7.5245 C.3         1 SU3       0.0677
     53 OD2       -12.6147   -9.8082    8.9317 O.3         1 SU3      -0.2338
     54 H1        -10.5338   -7.5206    8.5510 H           1 SU3       0.0803
     55 H2        -10.4316   -9.6331    7.4878 H           1 SU3       0.0342
     56 H3        -11.1890   -9.0377    5.9963 H           1 SU3       0.0342
     57 H4        -13.1045  -10.0511    6.9225 H           1 SU3       0.0673
     58 H5        -14.6797   -5.7786    7.8948 H           1 SU3       0.0805
     59 H6        -13.4275   -3.7408    9.5780 H           1 SU3       0.1899
     60 H7         -5.3263   -5.6153    4.5877 H           1 SU3       0.0265
     61 H8         -4.8104   -7.0599    5.4770 H           1 SU3       0.0265
     62 H9         -4.0548   -7.1370    3.1049 H           1 SU3       0.0230
     63 H10        -5.7360   -7.0414    2.5564 H           1 SU3       0.0230
     64 H11        -5.1692   -8.4656    3.4525 H           1 SU3       0.0230
     65 H12       -14.2439   -3.9241    4.6796 H           1 SU3       0.0237
     66 H13       -14.6854   -5.4802    5.3836 H           1 SU3       0.0237
     67 H14       -12.9922   -4.9841    5.3200 H           1 SU3       0.0237
     68 H15        -8.4313   -7.4197    7.4784 H           1 SU3       0.1839
     69 H16        -7.1633   -8.1186    5.1539 H           1 SU3       0.0312
     70 H17        -7.6946   -5.3498    3.8472 H           1 SU3       0.0279
     71 H18        -8.8350   -6.8259    4.0284 H           1 SU3       0.0279
     72 H19       -11.5794  -13.2807   10.8806 H           1 SU3       0.0373
     73 H20       -13.1789   -9.5169   11.5047 H           1 SU3       0.0361
     74 H21       -11.7961  -14.2381   13.5526 H           1 SU3       0.0557
     75 H22       -12.5800  -13.6147   15.7743 H           1 SU3       0.0599
     76 H23       -13.4958  -11.4244   16.1789 H           1 SU3       0.0557
     77 H24       -14.3623   -9.3300   15.4002 H           1 SU3       0.0426
     78 H25       -14.6048   -9.1596   13.6709 H           1 SU3       0.0426
     79 H26        -5.6211   -5.3512    6.9789 H           1 SU3       0.2148
     80 H27        -6.8519   -3.1553    9.7210 H           1 SU3       0.0559
     81 H28        -4.3097   -1.3402    9.4093 H           1 SU3       0.0285
     82 H29        -5.2856   -1.7008   10.9767 H           1 SU3       0.0285
     83 H30        -7.2753   -0.7111    9.9560 H           1 SU3       0.0285
     84 H31        -6.2929   -0.3572    8.3932 H           1 SU3       0.0285
     85 H32       -12.2701   -8.1899   13.4619 H           1 SU3       0.0287
     86 H33       -12.0230   -8.4746   15.1835 H           1 SU3       0.0287
     87 H34       -12.4737   -6.1642   14.9618 H           1 SU3       0.0267
     88 H35       -13.9137   -6.8800   15.6820 H           1 SU3       0.0267
     89 H36       -15.0216   -6.8347   13.4162 H           1 SU3       0.0271
     90 H37       -13.5683   -6.1288   12.7312 H           1 SU3       0.0271
     91 H38       -16.4485   -5.0097   12.4914 H           1 SU3       0.0617
     92 H39       -16.1050   -3.3208   12.8422 H           1 SU3       0.0617
     93 H40       -15.1611   -4.9300   16.0565 H           1 SU3       0.0236
     94 H41       -16.4880   -5.4982   15.0322 H           1 SU3       0.0236
     95 H42       -16.2128   -3.7640   15.2599 H           1 SU3       0.0236
     96 H43       -12.9216   -3.6960   13.2966 H           1 SU3       0.0236
     97 H44       -13.1041   -3.8591   15.0470 H           1 SU3       0.0236
     98 H45       -14.0563   -2.6606   14.1745 H           1 SU3       0.0236
     99 H46       -15.7770   -2.8884    7.9388 H           1 SU3       0.0237
    100 H47       -16.3460   -4.2288    6.9353 H           1 SU3       0.0237
    101 H48       -15.8437   -2.7110    6.1847 H           1 SU3       0.0237
    102 H49       -12.1527   -3.0294    6.7656 H           1 SU3       0.0237
    103 H50       -13.2356   -2.2424    7.9240 H           1 SU3       0.0237
    104 H51       -13.4436   -1.9869    6.1919 H           1 SU3       0.0237
    105 H52       -13.8271   -7.8282    6.5575 H           1 SU3       0.0553
    106 H53       -14.0969   -7.9415    8.3103 H           1 SU3       0.0553
@<TRIPOS>BOND
     1     1     3   2
     2     1     4   1
     3    21     1  am
     4     4     2   1
     5     2     7  am
     6     2    52   1
     7     4     5   1
     8     5     6   1
     9     6    52   1
    10     6    53   1
    11     7     8   2
    12     7     9   1
    13     9    10   1
    14     9    13   1
    15    10    11  am
    16    11    12   1
    17    11    14   2
    18    12    47   1
    19    13    20   1
    20    13    50   1
    21    13    51   1
    22    15    16   2
    23    15    17  am
    24    53    15   1
    25    17    26   1
    26    17    29   1
    27    18    19   1
    28    24    18   1
    29    22    21   1
    30    22    23   1
    31    22    24   1
    32    22    25   1
    33    23    35  am
    34    23    36   2
    35    24    25   1
    36    26    27   2
    37    27    28  ar
    38    27    30  ar
    39    28    29   2
    40    28    33  ar
    41    30    31  ar
    42    31    32  ar
    43    32    33  ar
    44    33    34   1
    45    34    43   1
    46    35    37  am
    47    37    38   1
    48    37    39   2
    49    37    40   2
    50    38    41   1
    51    38    42   1
    52    41    42   1
    53    43    44   1
    54    44    45   1
    55    45    46   1
    56    46    47   1
    57    46    48   1
    58    46    49   1
    59     4    54   1
    60     5    55   1
    61     5    56   1
    62     6    57   1
    63     9    58   1
    64    10    59   1
    65    18    60   1
    66    18    61   1
    67    19    62   1
    68    19    63   1
    69    19    64   1
    70    20    65   1
    71    20    66   1
    72    20    67   1
    73    21    68   1
    74    24    69   1
    75    25    70   1
    76    25    71   1
    77    26    72   1
    78    29    73   1
    79    30    74   1
    80    31    75   1
    81    32    76   1
    82    34    77   1
    83    34    78   1
    84    35    79   1
    85    38    80   1
    86    41    81   1
    87    41    82   1
    88    42    83   1
    89    42    84   1
    90    43    85   1
    91    43    86   1
    92    44    87   1
    93    44    88   1
    94    45    89   1
    95    45    90   1
    96    47    91   1
    97    47    92   1
    98    48    93   1
    99    48    94   1
   100    48    95   1
   101    49    96   1
   102    49    97   1
   103    49    98   1
   104    50    99   1
   105    50   100   1
   106    50   101   1
   107    51   102   1
   108    51   103   1
   109    51   104   1
   110    52   105   1
   111    52   106   1
@<TRIPOS>SUBSTRUCTURE
     1  SU3      1

