@<TRIPOS>MOLECULE
3su5_ligand_021
   106   111
SMALL
GAST_HUCK
****
This file was generated by PARSER (from files_GN.cpp)

@<TRIPOS>ATOM
      1 C         -12.8289   -6.8398   11.7407 C.2         1 SU3       0.2013
      2 N         -14.9393   -6.0147   10.7013 N.am        1 SU3      -0.2469
      3 O         -11.9332   -7.6697   11.6330 O.2         1 SU3      -0.3947
      4 CA        -13.5837   -6.4961   10.5358 C.3         1 SU3       0.1363
      5 CB        -12.8539   -5.3805    9.7531 C.3         1 SU3       0.0206
      6 CG        -13.9781   -4.6750    8.9817 C.3         1 SU3       0.1158
      7 CAF       -15.8921   -6.6768   11.3865 C.2         1 SU3       0.2070
      8 OAG       -15.6165   -7.7947   11.8095 O.2         1 SU3      -0.3942
      9 CAH       -17.2690   -6.2131   11.6502 C.3         1 SU3       0.1378
     10 NAI       -18.1698   -7.2078   11.1203 N.am        1 SU3      -0.2407
     11 CAJ       -19.0681   -7.0341   10.1251 C.2         1 SU3       0.3218
     12 OAK       -19.8405   -8.1020    9.7914 O.3         1 SU3      -0.2633
     13 CAL       -17.5957   -5.8701   13.1653 C.3         1 SU3       0.0025
     14 OAM       -19.2144   -5.8470    9.4907 O.2         1 SU3      -0.3774
     15 CAO       -13.5216   -5.3944    6.6064 C.2         1 SU3       0.4317
     16 OAP       -12.3032   -4.7999    6.5906 O.2         1 SU3      -0.3166
     17 NAQ       -13.9865   -6.0374    5.5030 N.am        1 SU3      -0.2080
     18 CAR       -12.2626   -5.7647   16.7473 C.3         1 SU3      -0.0516
     19 CAS       -12.2402   -6.8073   17.8906 C.3         1 SU3      -0.0651
     20 CAT       -16.6631   -4.7206   13.6806 C.3         1 SU3      -0.0558
     21 NAV       -13.0220   -6.1977   12.8898 N.am        1 SU3      -0.2737
     22 CAX       -12.2394   -6.3818   14.0746 C.3         1 SU3       0.1374
     23 CAY       -10.8558   -5.9576   13.9835 C.2         1 SU3       0.2444
     24 CAZ       -12.9724   -6.2403   15.4405 C.3         1 SU3      -0.0066
     25 CBA       -12.5947   -7.6323   14.9061 C.3         1 SU3      -0.0152
     26 CBB       -13.3279   -6.1730    4.3280 C.2         1 SU3       0.0383
     27 CBC       -14.1370   -6.8676    3.4365 C.ar        1 SU3      -0.0374
     28 CBD       -15.3255   -7.1667    4.0988 C.ar        1 SU3      -0.0293
     29 CBE       -15.1935   -6.6380    5.3838 C.2         1 SU3       0.0366
     30 CBF       -13.9288   -7.2487    2.1000 C.ar        1 SU3      -0.0689
     31 CBG       -14.9569   -7.9427    1.4347 C.ar        1 SU3      -0.0688
     32 CBH       -16.1636   -8.2438    2.0998 C.ar        1 SU3      -0.0606
     33 CBI       -16.3735   -7.8616    3.4502 C.ar        1 SU3      -0.0432
     34 CBJ       -17.6494   -8.1841    4.1441 C.3         1 SU3      -0.0194
     35 NBK        -9.8929   -6.8608   13.9274 N.am        1 SU3      -0.1552
     36 OBL       -10.6297   -4.7571   13.8854 O.2         1 SU3      -0.3404
     37 SBM        -8.2519   -6.5273   13.7110 S.o2        1 SU3       0.0645
     38 CBN        -7.8582   -6.1437   11.9887 C.3         1 SU3       0.1004
     39 OBO        -7.7506   -5.4586   14.7786 O.2         1 SU3      -0.1503
     40 OBP        -7.4875   -7.8691   14.0974 O.2         1 SU3      -0.1503
     41 CBQ        -7.4214   -4.7181   11.6204 C.3         1 SU3      -0.0268
     42 CBR        -6.3933   -5.8565   11.6261 C.3         1 SU3      -0.0268
     43 CBS       -17.5052   -9.4052    5.0938 C.3         1 SU3      -0.0433
     44 CBT       -18.8255   -9.8376    5.7901 C.3         1 SU3      -0.0507
     45 CBU       -19.2996   -8.8757    6.9230 C.3         1 SU3      -0.0453
     46 CBV       -20.6082   -9.2606    7.7062 C.3         1 SU3      -0.0072
     47 CBW       -20.8816   -8.1692    8.8020 C.3         1 SU3       0.0824
     48 CBX       -21.8427   -9.2930    6.7463 C.3         1 SU3      -0.0574
     49 CBY       -20.4732  -10.6538    8.4039 C.3         1 SU3      -0.0574
     50 CBZ       -19.0747   -5.3610   13.2841 C.3         1 SU3      -0.0558
     51 CCA       -17.4354   -7.1010   14.1172 C.3         1 SU3      -0.0558
     52 CD1       -15.1731   -4.8163    9.9437 C.3         1 SU3       0.0677
     53 OD2       -14.2814   -5.3204    7.7339 O.3         1 SU3      -0.2338
     54 H1        -13.6418   -7.3848    9.8964 H           1 SU3       0.0803
     55 H2        -12.0861   -5.7881    9.0906 H           1 SU3       0.0342
     56 H3        -12.3810   -4.6536   10.4256 H           1 SU3       0.0342
     57 H4        -13.7484   -3.6229    8.7980 H           1 SU3       0.0673
     58 H5        -17.4374   -5.2793   11.1138 H           1 SU3       0.0805
     59 H6        -18.1395   -8.0863   11.5298 H           1 SU3       0.1899
     60 H7        -11.2293   -5.4703   16.5457 H           1 SU3       0.0265
     61 H8        -12.7907   -4.8730   17.1033 H           1 SU3       0.0265
     62 H9        -11.8248   -6.3500   18.7908 H           1 SU3       0.0230
     63 H10       -11.6025   -7.6523   17.6189 H           1 SU3       0.0230
     64 H11       -13.2528   -7.1635   18.1036 H           1 SU3       0.0230
     65 H12       -16.9186   -4.4421   14.7068 H           1 SU3       0.0237
     66 H13       -16.7606   -3.8300   13.0548 H           1 SU3       0.0237
     67 H14       -15.6177   -5.0310   13.6668 H           1 SU3       0.0237
     68 H15       -13.6956   -5.5007   12.9092 H           1 SU3       0.1839
     69 H16       -14.0458   -6.0390   15.3729 H           1 SU3       0.0312
     70 H17       -11.7716   -8.1380   15.4134 H           1 SU3       0.0279
     71 H18       -13.4348   -8.2311   14.5486 H           1 SU3       0.0279
     72 H19       -12.3919   -5.8186    4.1126 H           1 SU3       0.0373
     73 H20       -15.9096   -6.6879    6.1118 H           1 SU3       0.0361
     74 H21       -13.0540   -7.0236    1.6225 H           1 SU3       0.0557
     75 H22       -14.8265   -8.2291    0.4611 H           1 SU3       0.0599
     76 H23       -16.8902   -8.7529    1.5902 H           1 SU3       0.0557
     77 H24       -18.4297   -8.4072    3.4111 H           1 SU3       0.0426
     78 H25       -17.9811   -7.3055    4.6997 H           1 SU3       0.0426
     79 H26       -10.1500   -7.7959   13.9776 H           1 SU3       0.2148
     80 H27        -8.4064   -6.6795   11.2108 H           1 SU3       0.0559
     81 H28        -7.3195   -3.9951   12.4338 H           1 SU3       0.0285
     82 H29        -7.7327   -4.3703   10.6327 H           1 SU3       0.0285
     83 H30        -6.0775   -6.2151   10.6444 H           1 SU3       0.0285
     84 H31        -5.6735   -5.8451   12.4480 H           1 SU3       0.0285
     85 H32       -16.7488   -9.1981    5.8563 H           1 SU3       0.0287
     86 H33       -17.1456  -10.2544    4.5016 H           1 SU3       0.0287
     87 H34       -18.6537  -10.8268    6.2194 H           1 SU3       0.0267
     88 H35       -19.6031   -9.9378    5.0306 H           1 SU3       0.0267
     89 H36       -19.4439   -7.8865    6.4838 H           1 SU3       0.0271
     90 H37       -18.4756   -8.7909    7.6358 H           1 SU3       0.0271
     91 H38       -21.0222   -7.1965    8.3221 H           1 SU3       0.0617
     92 H39       -21.8068   -8.3987    9.3371 H           1 SU3       0.0617
     93 H40       -21.7514  -10.0932    6.0102 H           1 SU3       0.0236
     94 H41       -21.9415   -8.3463    6.2100 H           1 SU3       0.0236
     95 H42       -22.7661   -9.4645    7.3042 H           1 SU3       0.0236
     96 H43       -19.5761  -10.6914    9.0250 H           1 SU3       0.0236
     97 H44       -20.4123  -11.4580    7.6686 H           1 SU3       0.0236
     98 H45       -21.3380  -10.8553    9.0395 H           1 SU3       0.0236
     99 H46       -19.7843   -6.1514   13.0248 H           1 SU3       0.0237
    100 H47       -19.2526   -4.5140   12.6168 H           1 SU3       0.0237
    101 H48       -19.2976   -5.0387   14.3039 H           1 SU3       0.0237
    102 H49       -16.3885   -7.3867   14.2215 H           1 SU3       0.0237
    103 H50       -17.9890   -7.9614   13.7384 H           1 SU3       0.0237
    104 H51       -17.8120   -6.8694   15.1144 H           1 SU3       0.0237
    105 H52       -15.2317   -3.9576   10.6182 H           1 SU3       0.0553
    106 H53       -16.0919   -4.8710    9.3537 H           1 SU3       0.0553
@<TRIPOS>BOND
     1     1     3   2
     2     1     4   1
     3    21     1  am
     4     4     2   1
     5     2     7  am
     6     2    52   1
     7     4     5   1
     8     5     6   1
     9     6    52   1
    10     6    53   1
    11     7     8   2
    12     7     9   1
    13     9    10   1
    14     9    13   1
    15    10    11  am
    16    11    12   1
    17    11    14   2
    18    12    47   1
    19    13    20   1
    20    13    50   1
    21    13    51   1
    22    15    16   2
    23    15    17  am
    24    53    15   1
    25    17    26   1
    26    17    29   1
    27    18    19   1
    28    24    18   1
    29    22    21   1
    30    22    23   1
    31    22    24   1
    32    22    25   1
    33    23    35  am
    34    23    36   2
    35    24    25   1
    36    26    27   2
    37    27    28  ar
    38    27    30  ar
    39    28    29   2
    40    28    33  ar
    41    30    31  ar
    42    31    32  ar
    43    32    33  ar
    44    33    34   1
    45    34    43   1
    46    35    37  am
    47    37    38   1
    48    37    39   2
    49    37    40   2
    50    38    41   1
    51    38    42   1
    52    41    42   1
    53    43    44   1
    54    44    45   1
    55    45    46   1
    56    46    47   1
    57    46    48   1
    58    46    49   1
    59     4    54   1
    60     5    55   1
    61     5    56   1
    62     6    57   1
    63     9    58   1
    64    10    59   1
    65    18    60   1
    66    18    61   1
    67    19    62   1
    68    19    63   1
    69    19    64   1
    70    20    65   1
    71    20    66   1
    72    20    67   1
    73    21    68   1
    74    24    69   1
    75    25    70   1
    76    25    71   1
    77    26    72   1
    78    29    73   1
    79    30    74   1
    80    31    75   1
    81    32    76   1
    82    34    77   1
    83    34    78   1
    84    35    79   1
    85    38    80   1
    86    41    81   1
    87    41    82   1
    88    42    83   1
    89    42    84   1
    90    43    85   1
    91    43    86   1
    92    44    87   1
    93    44    88   1
    94    45    89   1
    95    45    90   1
    96    47    91   1
    97    47    92   1
    98    48    93   1
    99    48    94   1
   100    48    95   1
   101    49    96   1
   102    49    97   1
   103    49    98   1
   104    50    99   1
   105    50   100   1
   106    50   101   1
   107    51   102   1
   108    51   103   1
   109    51   104   1
   110    52   105   1
   111    52   106   1
@<TRIPOS>SUBSTRUCTURE
     1  SU3      1

