@<TRIPOS>MOLECULE
3su5_ligand_001
   106   111
SMALL
GAST_HUCK
****
This file was generated by PARSER (from files_GN.cpp)

@<TRIPOS>ATOM
      1 C         -13.6335   -7.9468   12.8842 C.2         1 SU3       0.2013
      2 N         -15.3106   -9.7669   13.1802 N.am        1 SU3      -0.2469
      3 O         -14.5437   -7.1145   12.9040 O.2         1 SU3      -0.3947
      4 CA        -13.9178   -9.3389   13.2447 C.3         1 SU3       0.1363
      5 CB        -13.1624  -10.3253   12.3088 C.3         1 SU3       0.0206
      6 CG        -14.0919  -11.5420   12.1654 C.3         1 SU3       0.1158
      7 CAF       -16.3064   -9.2052   13.8957 C.2         1 SU3       0.2070
      8 OAG       -15.9750   -8.4517   14.8132 O.2         1 SU3      -0.3942
      9 CAH       -17.7565   -9.4030   13.6842 C.3         1 SU3       0.1378
     10 NAI       -18.3596   -9.7822   14.9378 N.am        1 SU3      -0.2407
     11 CAJ       -18.8994  -10.9932   15.2280 C.2         1 SU3       0.3218
     12 OAK       -19.4714  -11.1621   16.4501 O.3         1 SU3      -0.2633
     13 CAL       -18.4938   -8.1676   13.0086 C.3         1 SU3       0.0025
     14 OAM       -18.9053  -12.0082   14.3329 O.2         1 SU3      -0.3774
     15 CAO       -12.8368  -13.3588   13.3827 C.2         1 SU3       0.4317
     16 OAP       -11.7822  -13.2882   12.5357 O.2         1 SU3      -0.3166
     17 NAQ       -12.8532  -14.2724   14.3874 N.am        1 SU3      -0.2080
     18 CAR       -10.1730   -5.0545   10.5874 C.3         1 SU3      -0.0516
     19 CAS        -8.7709   -5.6842   10.7408 C.3         1 SU3      -0.0651
     20 CAT       -18.0927   -8.0917   11.4974 C.3         1 SU3      -0.0558
     21 NAV       -12.3815   -7.5692   12.5974 N.am        1 SU3      -0.2737
     22 CAX       -11.9616   -6.2275   12.3156 C.3         1 SU3       0.1374
     23 CAY       -11.5742   -5.4417   13.4723 C.2         1 SU3       0.2444
     24 CAZ       -11.2946   -6.0690   10.9255 C.3         1 SU3      -0.0066
     25 CBA       -12.6807   -5.4622   11.1739 C.3         1 SU3      -0.0152
     26 CBB       -11.8641  -15.1526   14.6780 C.2         1 SU3       0.0383
     27 CBC       -12.2774  -15.9534   15.7332 C.ar        1 SU3      -0.0374
     28 CBD       -13.5527  -15.5293   16.1048 C.ar        1 SU3      -0.0293
     29 CBE       -13.8703  -14.4783   15.2487 C.2         1 SU3       0.0366
     30 CBF       -11.6476  -17.0306   16.3818 C.ar        1 SU3      -0.0689
     31 CBG       -12.3402  -17.6789   17.4292 C.ar        1 SU3      -0.0688
     32 CBH       -13.6289  -17.2543   17.8017 C.ar        1 SU3      -0.0606
     33 CBI       -14.2658  -16.1676   17.1472 C.ar        1 SU3      -0.0432
     34 CBJ       -15.6327  -15.7301   17.5371 C.3         1 SU3      -0.0194
     35 NBK       -12.5115   -5.1418   14.3583 N.am        1 SU3      -0.1552
     36 OBL       -10.3735   -5.2161   13.6506 O.2         1 SU3      -0.3404
     37 SBM       -12.1987   -4.5628   15.9196 S.o2        1 SU3       0.0645
     38 CBN       -11.9497   -5.8342   17.1762 C.3         1 SU3       0.1004
     39 OBO       -10.9192   -3.6184   15.9020 O.2         1 SU3      -0.1503
     40 OBP       -13.3878   -3.5933   16.3381 O.2         1 SU3      -0.1503
     41 CBQ       -13.1615   -6.7212   17.5207 C.3         1 SU3      -0.0268
     42 CBR       -11.9602   -7.3188   16.7655 C.3         1 SU3      -0.0268
     43 CBS       -15.6176  -14.4158   18.3672 C.3         1 SU3      -0.0433
     44 CBT       -17.0137  -13.9641   18.8808 C.3         1 SU3      -0.0507
     45 CBU       -17.9473  -13.3826   17.7782 C.3         1 SU3      -0.0453
     46 CBV       -19.4004  -12.9478   18.2052 C.3         1 SU3      -0.0072
     47 CBW       -20.1298  -12.3363   16.9575 C.3         1 SU3       0.0824
     48 CBX       -20.2229  -14.1870   18.6907 C.3         1 SU3      -0.0574
     49 CBY       -19.3728  -11.8796   19.3455 C.3         1 SU3      -0.0574
     50 CBZ       -20.0457   -8.3721   13.0792 C.3         1 SU3      -0.0558
     51 CCA       -18.1658   -6.7910   13.6793 C.3         1 SU3      -0.0558
     52 CD1       -15.4844  -10.9010   12.3122 C.3         1 SU3       0.0677
     53 OD2       -13.9005  -12.5320   13.1926 O.3         1 SU3      -0.2338
     54 H1        -13.5577   -9.5091   14.2674 H           1 SU3       0.0803
     55 H2        -12.1894  -10.6119   12.7180 H           1 SU3       0.0342
     56 H3        -13.0048   -9.8972   11.3098 H           1 SU3       0.0342
     57 H4        -13.9932  -12.0227   11.1874 H           1 SU3       0.0673
     58 H5        -17.9015  -10.2268   12.9793 H           1 SU3       0.0805
     59 H6        -18.3880   -9.1072   15.6357 H           1 SU3       0.1899
     60 H7        -10.3034   -4.7396    9.5479 H           1 SU3       0.0265
     61 H8        -10.2407   -4.1687   11.2266 H           1 SU3       0.0265
     62 H9         -8.0123   -4.9432   10.4778 H           1 SU3       0.0230
     63 H10        -8.6621   -6.5475   10.0818 H           1 SU3       0.0230
     64 H11        -8.6090   -6.0009   11.7730 H           1 SU3       0.0230
     65 H12       -18.5765   -7.2495   10.9985 H           1 SU3       0.0237
     66 H13       -18.3879   -9.0014   10.9702 H           1 SU3       0.0237
     67 H14       -17.0147   -7.9744   11.3831 H           1 SU3       0.0237
     68 H15       -11.6835   -8.2611   12.5874 H           1 SU3       0.1839
     69 H16       -11.3516   -6.9496   10.2797 H           1 SU3       0.0312
     70 H17       -12.7321   -4.3721   11.2806 H           1 SU3       0.0279
     71 H18       -13.4998   -5.9803   10.6669 H           1 SU3       0.0279
     72 H19       -10.9659  -15.2377   14.1939 H           1 SU3       0.0373
     73 H20       -14.7567  -13.9659   15.2605 H           1 SU3       0.0361
     74 H21       -10.7130  -17.3367   16.1050 H           1 SU3       0.0557
     75 H22       -11.8969  -18.4591   17.9187 H           1 SU3       0.0599
     76 H23       -14.1036  -17.7430   18.5668 H           1 SU3       0.0557
     77 H24       -16.1213  -16.5087   18.1307 H           1 SU3       0.0426
     78 H25       -16.2307  -15.6040   16.6319 H           1 SU3       0.0426
     79 H26       -13.4345   -5.4046   14.1491 H           1 SU3       0.2148
     80 H27       -11.3237   -5.5875   18.0336 H           1 SU3       0.0559
     81 H28       -14.0673   -6.6099   16.9197 H           1 SU3       0.0285
     82 H29       -13.2364   -7.0309   18.5631 H           1 SU3       0.0285
     83 H30       -11.3231   -7.9695   17.3628 H           1 SU3       0.0285
     84 H31       -12.1435   -7.5558   15.7167 H           1 SU3       0.0285
     85 H32       -15.1728  -13.6074   17.7818 H           1 SU3       0.0287
     86 H33       -14.9786  -14.5767   19.2392 H           1 SU3       0.0287
     87 H34       -16.8476  -13.1924   19.6357 H           1 SU3       0.0267
     88 H35       -17.4910  -14.8119   19.3739 H           1 SU3       0.0267
     89 H36       -18.0383  -14.1223   16.9790 H           1 SU3       0.0271
     90 H37       -17.4316  -12.5181   17.3526 H           1 SU3       0.0271
     91 H38       -20.2217  -13.1010   16.1807 H           1 SU3       0.0617
     92 H39       -21.1458  -12.0355   17.2256 H           1 SU3       0.0617
     93 H40       -19.8105  -14.5996   19.6127 H           1 SU3       0.0236
     94 H41       -20.2204  -14.9769   17.9366 H           1 SU3       0.0236
     95 H42       -21.2614  -13.9134   18.8879 H           1 SU3       0.0236
     96 H43       -18.7254  -11.0431   19.0743 H           1 SU3       0.0236
     97 H44       -19.0045  -12.3112   20.2777 H           1 SU3       0.0236
     98 H45       -20.3744  -11.4879   19.5389 H           1 SU3       0.0236
     99 H46       -20.4011   -8.3104   14.1101 H           1 SU3       0.0237
    100 H47       -20.3328   -9.3474   12.6797 H           1 SU3       0.0237
    101 H48       -20.5710   -7.6074   12.5025 H           1 SU3       0.0237
    102 H49       -17.1258   -6.5065   13.5185 H           1 SU3       0.0237
    103 H50       -18.3478   -6.8285   14.7532 H           1 SU3       0.0237
    104 H51       -18.7880   -5.9980   13.2584 H           1 SU3       0.0237
    105 H52       -15.8611  -10.5686   11.3365 H           1 SU3       0.0553
    106 H53       -16.1752  -11.6408   12.7320 H           1 SU3       0.0553
@<TRIPOS>BOND
     1     1     3   2
     2     1     4   1
     3    21     1  am
     4     4     2   1
     5     2     7  am
     6     2    52   1
     7     4     5   1
     8     5     6   1
     9     6    52   1
    10     6    53   1
    11     7     8   2
    12     7     9   1
    13     9    10   1
    14     9    13   1
    15    10    11  am
    16    11    12   1
    17    11    14   2
    18    12    47   1
    19    13    20   1
    20    13    50   1
    21    13    51   1
    22    15    16   2
    23    15    17  am
    24    53    15   1
    25    17    26   1
    26    17    29   1
    27    18    19   1
    28    24    18   1
    29    22    21   1
    30    22    23   1
    31    22    24   1
    32    22    25   1
    33    23    35  am
    34    23    36   2
    35    24    25   1
    36    26    27   2
    37    27    28  ar
    38    27    30  ar
    39    28    29   2
    40    28    33  ar
    41    30    31  ar
    42    31    32  ar
    43    32    33  ar
    44    33    34   1
    45    34    43   1
    46    35    37  am
    47    37    38   1
    48    37    39   2
    49    37    40   2
    50    38    41   1
    51    38    42   1
    52    41    42   1
    53    43    44   1
    54    44    45   1
    55    45    46   1
    56    46    47   1
    57    46    48   1
    58    46    49   1
    59     4    54   1
    60     5    55   1
    61     5    56   1
    62     6    57   1
    63     9    58   1
    64    10    59   1
    65    18    60   1
    66    18    61   1
    67    19    62   1
    68    19    63   1
    69    19    64   1
    70    20    65   1
    71    20    66   1
    72    20    67   1
    73    21    68   1
    74    24    69   1
    75    25    70   1
    76    25    71   1
    77    26    72   1
    78    29    73   1
    79    30    74   1
    80    31    75   1
    81    32    76   1
    82    34    77   1
    83    34    78   1
    84    35    79   1
    85    38    80   1
    86    41    81   1
    87    41    82   1
    88    42    83   1
    89    42    84   1
    90    43    85   1
    91    43    86   1
    92    44    87   1
    93    44    88   1
    94    45    89   1
    95    45    90   1
    96    47    91   1
    97    47    92   1
    98    48    93   1
    99    48    94   1
   100    48    95   1
   101    49    96   1
   102    49    97   1
   103    49    98   1
   104    50    99   1
   105    50   100   1
   106    50   101   1
   107    51   102   1
   108    51   103   1
   109    51   104   1
   110    52   105   1
   111    52   106   1
@<TRIPOS>SUBSTRUCTURE
     1  SU3      1

