@<TRIPOS>MOLECULE
3su5_ligand_009
   106   111
SMALL
GAST_HUCK
****
This file was generated by PARSER (from files_GN.cpp)

@<TRIPOS>ATOM
      1 C         -12.1400   -6.4323    9.6840 C.2         1 SU3       0.2013
      2 N          -9.9697   -5.3932    9.3922 N.am        1 SU3      -0.2469
      3 O         -11.6983   -7.5756    9.7065 O.2         1 SU3      -0.3947
      4 CA        -11.3631   -5.3920    9.0127 C.3         1 SU3       0.1363
      5 CB        -11.3896   -5.5754    7.4724 C.3         1 SU3       0.0206
      6 CG         -9.9543   -5.2797    7.0087 C.3         1 SU3       0.1158
      7 CAF        -9.5316   -5.2313   10.6601 C.2         1 SU3       0.2070
      8 OAG       -10.3502   -4.9095   11.5168 O.2         1 SU3      -0.3942
      9 CAH        -8.1415   -5.3846   11.1198 C.3         1 SU3       0.1378
     10 NAI        -7.6921   -4.0753   11.5073 N.am        1 SU3      -0.2407
     11 CAJ        -6.6241   -3.4044   11.0253 C.2         1 SU3       0.3218
     12 OAK        -6.3356   -2.2220   11.6259 O.3         1 SU3      -0.2633
     13 CAL        -7.8833   -6.4502   12.2706 C.3         1 SU3       0.0025
     14 OAM        -5.8489   -3.9045   10.0336 O.2         1 SU3      -0.3774
     15 CAO       -10.2286   -3.3246    5.4555 C.2         1 SU3       0.4317
     16 OAP       -11.0484   -4.0272    4.6333 O.2         1 SU3      -0.3166
     17 NAQ        -9.8533   -2.0632    5.1270 N.am        1 SU3      -0.2080
     18 CAR       -16.8501   -7.4152   11.2128 C.3         1 SU3      -0.0516
     19 CAS       -17.6058   -6.0899   11.4802 C.3         1 SU3      -0.0651
     20 CAT        -8.6128   -7.7971   11.9487 C.3         1 SU3      -0.0558
     21 NAV       -13.3076   -6.1476   10.2447 N.am        1 SU3      -0.2737
     22 CAX       -14.1272   -7.0775   10.9604 C.3         1 SU3       0.1374
     23 CAY       -14.0478   -7.0211   12.4047 C.2         1 SU3       0.2444
     24 CAZ       -15.5661   -7.1585   10.3717 C.3         1 SU3      -0.0066
     25 CBA       -14.6190   -8.3638   10.2580 C.3         1 SU3      -0.0152
     26 CBB       -10.2551   -1.3732    4.0335 C.2         1 SU3       0.0383
     27 CBC        -9.6166   -0.1368    4.0222 C.ar        1 SU3      -0.0374
     28 CBD        -8.8049   -0.0779    5.1519 C.ar        1 SU3      -0.0293
     29 CBE        -8.9798   -1.2917    5.8167 C.2         1 SU3       0.0366
     30 CBF        -9.6732    0.9255    3.1088 C.ar        1 SU3      -0.0689
     31 CBG        -8.8851    2.0659    3.3555 C.ar        1 SU3      -0.0688
     32 CBH        -8.0557    2.1280    4.5005 C.ar        1 SU3      -0.0606
     33 CBI        -8.0001    1.0541    5.4224 C.ar        1 SU3      -0.0432
     34 CBJ        -7.1319    1.1227    6.6298 C.3         1 SU3      -0.0194
     35 NBK       -13.5083   -8.0360   13.0631 N.am        1 SU3      -0.1552
     36 OBL       -14.4840   -6.0336   12.9809 O.2         1 SU3      -0.3404
     37 SBM       -13.5546   -8.2229   14.7395 S.o2        1 SU3       0.0645
     38 CBN       -12.2093   -7.5317   15.7376 C.3         1 SU3       0.1004
     39 OBO       -15.0014   -7.9025   15.3171 O.2         1 SU3      -0.1503
     40 OBP       -13.4804   -9.7956   14.9552 O.2         1 SU3      -0.1503
     41 CBQ       -11.8477   -6.0446   15.5752 C.3         1 SU3      -0.0268
     42 CBR       -12.5975   -6.5198   16.8286 C.3         1 SU3      -0.0268
     43 CBS        -7.9503    1.4344    7.9115 C.3         1 SU3      -0.0433
     44 CBT        -7.1056    1.5164    9.2136 C.3         1 SU3      -0.0507
     45 CBU        -6.5331    0.1537    9.7068 C.3         1 SU3      -0.0453
     46 CBV        -5.7799    0.1455   11.0908 C.3         1 SU3      -0.0072
     47 CBW        -5.2585   -1.3061   11.3786 C.3         1 SU3       0.0824
     48 CBX        -4.5472    1.1064   11.0584 C.3         1 SU3      -0.0574
     49 CBY        -6.7320    0.5775   12.2544 C.3         1 SU3      -0.0574
     50 CBZ        -6.3459   -6.7576   12.3639 C.3         1 SU3      -0.0558
     51 CCA        -8.3499   -5.9602   13.6845 C.3         1 SU3      -0.0558
     52 CD1        -9.1074   -5.5676    8.2613 C.3         1 SU3       0.0677
     53 OD2        -9.7444   -3.9232    6.5819 O.3         1 SU3      -0.2338
     54 H1        -11.7761   -4.4043    9.2455 H           1 SU3       0.0803
     55 H2        -12.1145   -4.9046    7.0079 H           1 SU3       0.0342
     56 H3        -11.6450   -6.6002    7.1839 H           1 SU3       0.0342
     57 H4         -9.6607   -5.9474    6.1937 H           1 SU3       0.0673
     58 H5         -7.5378   -5.7325   10.2804 H           1 SU3       0.0805
     59 H6         -8.1855   -3.6420   12.2227 H           1 SU3       0.1899
     60 H7        -17.5050   -8.0895   10.6482 H           1 SU3       0.0265
     61 H8        -16.6219   -7.8950   12.1697 H           1 SU3       0.0265
     62 H9        -18.5070   -6.2989   12.0634 H           1 SU3       0.0230
     63 H10       -17.8915   -5.6277   10.5306 H           1 SU3       0.0230
     64 H11       -16.9732   -5.3947   12.0427 H           1 SU3       0.0230
     65 H12        -8.3310   -8.5701   12.6663 H           1 SU3       0.0237
     66 H13        -8.3506   -8.1514   10.9485 H           1 SU3       0.0237
     67 H14        -9.6983   -7.6786   11.9950 H           1 SU3       0.0237
     68 H15       -13.6205   -5.2311   10.2032 H           1 SU3       0.1839
     69 H16       -15.7219   -6.6819    9.3977 H           1 SU3       0.0312
     70 H17       -14.8379   -9.2230   10.8996 H           1 SU3       0.0279
     71 H18       -14.2169   -8.5486    9.2575 H           1 SU3       0.0279
     72 H19       -10.9051   -1.6980    3.3156 H           1 SU3       0.0373
     73 H20        -8.4939   -1.5610    6.6741 H           1 SU3       0.0361
     74 H21       -10.2693    0.8728    2.2798 H           1 SU3       0.0557
     75 H22        -8.9123    2.8532    2.7051 H           1 SU3       0.0599
     76 H23        -7.4998    2.9713    4.6555 H           1 SU3       0.0557
     77 H24        -6.3713    1.8981    6.5058 H           1 SU3       0.0426
     78 H25        -6.6021    0.1741    6.7335 H           1 SU3       0.0426
     79 H26       -13.1596   -8.7823   12.5469 H           1 SU3       0.2148
     80 H27       -11.3593   -8.1731   15.9803 H           1 SU3       0.0559
     81 H28       -12.4406   -5.4588   14.8660 H           1 SU3       0.0285
     82 H29       -10.7970   -5.7831   15.7472 H           1 SU3       0.0285
     83 H30       -12.0000   -6.5535   17.7445 H           1 SU3       0.0285
     84 H31       -13.6389   -6.1905   16.8792 H           1 SU3       0.0285
     85 H32        -8.7353    0.6884    8.0465 H           1 SU3       0.0287
     86 H33        -8.4432    2.4013    7.7720 H           1 SU3       0.0287
     87 H34        -7.7530    1.9287    9.9891 H           1 SU3       0.0267
     88 H35        -6.2910    2.2247    9.0511 H           1 SU3       0.0267
     89 H36        -5.8459   -0.2183    8.9437 H           1 SU3       0.0271
     90 H37        -7.3621   -0.5558    9.7611 H           1 SU3       0.0271
     91 H38        -4.6246   -1.6547   10.5588 H           1 SU3       0.0617
     92 H39        -4.6452   -1.3057   12.2831 H           1 SU3       0.0617
     93 H40        -4.8550    2.1451   10.9314 H           1 SU3       0.0236
     94 H41        -3.8753    0.8474   10.2377 H           1 SU3       0.0236
     95 H42        -3.9828    1.0472   11.9915 H           1 SU3       0.0236
     96 H43        -7.6684    0.0170   12.2244 H           1 SU3       0.0236
     97 H44        -6.9710    1.6405   12.2039 H           1 SU3       0.0236
     98 H45        -6.2631    0.3911   13.2201 H           1 SU3       0.0236
     99 H46        -5.7793   -5.8505   12.5798 H           1 SU3       0.0237
    100 H47        -5.9758   -7.1744   11.4242 H           1 SU3       0.0237
    101 H48        -6.1353   -7.4803   13.1570 H           1 SU3       0.0237
    102 H49        -9.4187   -5.7456   13.6980 H           1 SU3       0.0237
    103 H50        -7.8172   -5.0516   13.9809 H           1 SU3       0.0237
    104 H51        -8.1552   -6.7220   14.4452 H           1 SU3       0.0237
    105 H52        -8.7342   -6.5961    8.2385 H           1 SU3       0.0553
    106 H53        -8.2597   -4.8784    8.2852 H           1 SU3       0.0553
@<TRIPOS>BOND
     1     1     3   2
     2     1     4   1
     3    21     1  am
     4     4     2   1
     5     2     7  am
     6     2    52   1
     7     4     5   1
     8     5     6   1
     9     6    52   1
    10     6    53   1
    11     7     8   2
    12     7     9   1
    13     9    10   1
    14     9    13   1
    15    10    11  am
    16    11    12   1
    17    11    14   2
    18    12    47   1
    19    13    20   1
    20    13    50   1
    21    13    51   1
    22    15    16   2
    23    15    17  am
    24    53    15   1
    25    17    26   1
    26    17    29   1
    27    18    19   1
    28    24    18   1
    29    22    21   1
    30    22    23   1
    31    22    24   1
    32    22    25   1
    33    23    35  am
    34    23    36   2
    35    24    25   1
    36    26    27   2
    37    27    28  ar
    38    27    30  ar
    39    28    29   2
    40    28    33  ar
    41    30    31  ar
    42    31    32  ar
    43    32    33  ar
    44    33    34   1
    45    34    43   1
    46    35    37  am
    47    37    38   1
    48    37    39   2
    49    37    40   2
    50    38    41   1
    51    38    42   1
    52    41    42   1
    53    43    44   1
    54    44    45   1
    55    45    46   1
    56    46    47   1
    57    46    48   1
    58    46    49   1
    59     4    54   1
    60     5    55   1
    61     5    56   1
    62     6    57   1
    63     9    58   1
    64    10    59   1
    65    18    60   1
    66    18    61   1
    67    19    62   1
    68    19    63   1
    69    19    64   1
    70    20    65   1
    71    20    66   1
    72    20    67   1
    73    21    68   1
    74    24    69   1
    75    25    70   1
    76    25    71   1
    77    26    72   1
    78    29    73   1
    79    30    74   1
    80    31    75   1
    81    32    76   1
    82    34    77   1
    83    34    78   1
    84    35    79   1
    85    38    80   1
    86    41    81   1
    87    41    82   1
    88    42    83   1
    89    42    84   1
    90    43    85   1
    91    43    86   1
    92    44    87   1
    93    44    88   1
    94    45    89   1
    95    45    90   1
    96    47    91   1
    97    47    92   1
    98    48    93   1
    99    48    94   1
   100    48    95   1
   101    49    96   1
   102    49    97   1
   103    49    98   1
   104    50    99   1
   105    50   100   1
   106    50   101   1
   107    51   102   1
   108    51   103   1
   109    51   104   1
   110    52   105   1
   111    52   106   1
@<TRIPOS>SUBSTRUCTURE
     1  SU3      1

