@<TRIPOS>MOLECULE
3su5_ligand_075
   106   111
SMALL
GAST_HUCK
****
This file was generated by PARSER (from files_GN.cpp)

@<TRIPOS>ATOM
      1 C         -14.3240   -8.6378   14.0952 C.2         1 SU3       0.2013
      2 N         -16.5196   -9.4494   13.3796 N.am        1 SU3      -0.2469
      3 O         -14.2785   -7.8788   13.1367 O.2         1 SU3      -0.3947
      4 CA        -15.2499   -9.7724   14.0107 C.3         1 SU3       0.1363
      5 CB        -14.6398  -10.9104   13.1549 C.3         1 SU3       0.0206
      6 CG        -15.8453  -11.5287   12.4308 C.3         1 SU3       0.1158
      7 CAF       -17.2974   -8.4172   13.7601 C.2         1 SU3       0.2070
      8 OAG       -17.0042   -7.8358   14.7970 O.2         1 SU3      -0.3942
      9 CAH       -18.4992   -7.9192   13.0623 C.3         1 SU3       0.1378
     10 NAI       -19.6071   -8.0802   13.9677 N.am        1 SU3      -0.2407
     11 CAJ       -20.7148   -8.8213   13.7646 C.2         1 SU3       0.3218
     12 OAK       -21.6612   -8.7916   14.7394 O.3         1 SU3      -0.2633
     13 CAL       -18.4068   -6.4392   12.4989 C.3         1 SU3       0.0025
     14 OAM       -20.8970   -9.5568   12.6410 O.2         1 SU3      -0.3774
     15 CAO       -16.0389  -13.7909   13.5292 C.2         1 SU3       0.4317
     16 OAP       -14.8109  -14.1869   13.1107 O.2         1 SU3      -0.3166
     17 NAQ       -16.8263  -14.6263   14.2480 N.am        1 SU3      -0.2080
     18 CAR       -13.0312   -4.5951   15.9650 C.3         1 SU3      -0.0516
     19 CAS       -11.5561   -4.1330   16.0115 C.3         1 SU3      -0.0651
     20 CAT       -19.7592   -6.0599   11.8060 C.3         1 SU3      -0.0558
     21 NAV       -13.5773   -8.4278   15.1721 N.am        1 SU3      -0.2737
     22 CAX       -12.7325   -7.2857   15.4034 C.3         1 SU3       0.1374
     23 CAY       -11.6763   -6.9919   14.4550 C.2         1 SU3       0.2444
     24 CAZ       -13.3943   -6.0999   16.1461 C.3         1 SU3      -0.0066
     25 CBA       -12.4353   -7.0272   16.8978 C.3         1 SU3      -0.0152
     26 CBB       -16.5100  -15.8831   14.6368 C.2         1 SU3       0.0383
     27 CBC       -17.5870  -16.4252   15.3224 C.ar        1 SU3      -0.0374
     28 CBD       -18.5893  -15.4584   15.3582 C.ar        1 SU3      -0.0293
     29 CBE       -18.0804  -14.3522   14.6835 C.2         1 SU3       0.0366
     30 CBF       -17.7734  -17.6925   15.9028 C.ar        1 SU3      -0.0689
     31 CBG       -19.0066  -17.9690   16.5222 C.ar        1 SU3      -0.0688
     32 CBH       -20.0265  -16.9934   16.5581 C.ar        1 SU3      -0.0606
     33 CBI       -19.8380  -15.7111   15.9766 C.ar        1 SU3      -0.0432
     34 CBJ       -20.9176  -14.6876   16.0032 C.3         1 SU3      -0.0194
     35 NBK       -12.0111   -6.3572   13.3449 N.am        1 SU3      -0.1552
     36 OBL       -10.5175   -7.2821   14.7257 O.2         1 SU3      -0.3404
     37 SBM       -10.9670   -5.9100   12.1025 S.o2        1 SU3       0.0645
     38 CBN       -10.2669   -7.1993   11.0401 C.3         1 SU3       0.1004
     39 OBO       -11.9165   -5.0780   11.1351 O.2         1 SU3      -0.1503
     40 OBP        -9.9275   -4.8190   12.6091 O.2         1 SU3      -0.1503
     41 CBQ        -9.1921   -8.1080   11.6549 C.3         1 SU3      -0.0268
     42 CBR       -10.5824   -8.6729   11.3414 C.3         1 SU3      -0.0268
     43 CBS       -20.6578  -13.5779   17.0601 C.3         1 SU3      -0.0433
     44 CBT       -21.7991  -12.5291   17.1863 C.3         1 SU3      -0.0507
     45 CBU       -21.8983  -11.5289   15.9943 C.3         1 SU3      -0.0453
     46 CBV       -23.0045  -10.4080   16.0719 C.3         1 SU3      -0.0072
     47 CBW       -22.9056   -9.5009   14.7955 C.3         1 SU3       0.0824
     48 CBX       -24.4354  -11.0397   16.0987 C.3         1 SU3      -0.0574
     49 CBY       -22.8212   -9.5082   17.3378 C.3         1 SU3      -0.0574
     50 CBZ       -18.1163   -5.3621   13.5993 C.3         1 SU3      -0.0558
     51 CCA       -17.2808   -6.3493   11.4128 C.3         1 SU3      -0.0558
     52 CD1       -16.7983  -10.3284   12.2771 C.3         1 SU3       0.0677
     53 OD2       -16.4963  -12.5514   13.2021 O.3         1 SU3      -0.2338
     54 H1        -15.4669  -10.1658   15.0113 H           1 SU3       0.0803
     55 H2        -14.1141  -11.6415   13.7752 H           1 SU3       0.0342
     56 H3        -13.9418  -10.5258   12.4038 H           1 SU3       0.0342
     57 H4        -15.5640  -11.9314   11.4515 H           1 SU3       0.0673
     58 H5        -18.6733   -8.5461   12.1877 H           1 SU3       0.0805
     59 H6        -19.5465   -7.6241   14.8222 H           1 SU3       0.1899
     60 H7        -13.4590   -4.2588   15.0198 H           1 SU3       0.0265
     61 H8        -13.5384   -4.0535   16.7661 H           1 SU3       0.0265
     62 H9        -11.5294   -3.0635   15.8202 H           1 SU3       0.0230
     63 H10       -10.9416   -4.6146   15.2525 H           1 SU3       0.0230
     64 H11       -11.1214   -4.3207   16.9943 H           1 SU3       0.0230
     65 H12       -19.6991   -5.0777   11.3357 H           1 SU3       0.0237
     66 H13       -20.5726   -6.0291   12.5312 H           1 SU3       0.0237
     67 H14       -20.0170   -6.7865   11.0351 H           1 SU3       0.0237
     68 H15       -13.6155   -9.0860   15.8871 H           1 SU3       0.1839
     69 H16       -14.4530   -6.2767   16.3579 H           1 SU3       0.0312
     70 H17       -11.4495   -6.6207   17.1446 H           1 SU3       0.0279
     71 H18       -12.9342   -7.6605   17.6335 H           1 SU3       0.0279
     72 H19       -15.6306  -16.3713   14.4486 H           1 SU3       0.0373
     73 H20       -18.5887  -13.4784   14.5272 H           1 SU3       0.0361
     74 H21       -17.0341  -18.3970   15.8668 H           1 SU3       0.0557
     75 H22       -19.1662  -18.8879   16.9439 H           1 SU3       0.0599
     76 H23       -20.9122  -17.2257   17.0136 H           1 SU3       0.0557
     77 H24       -21.8778  -15.1602   16.2285 H           1 SU3       0.0426
     78 H25       -21.0083  -14.2482   15.0078 H           1 SU3       0.0426
     79 H26       -12.9436   -6.1061   13.2418 H           1 SU3       0.2148
     80 H27       -10.0898   -6.9564    9.9878 H           1 SU3       0.0559
     81 H28        -8.9648   -7.9707   12.7134 H           1 SU3       0.0285
     82 H29        -8.3982   -8.4323   10.9796 H           1 SU3       0.0285
     83 H30       -10.6210   -9.3436   10.4801 H           1 SU3       0.0285
     84 H31       -11.2066   -8.8878   12.2107 H           1 SU3       0.0285
     85 H32       -19.7207  -13.0610   16.8382 H           1 SU3       0.0287
     86 H33       -20.5403  -14.0605   18.0354 H           1 SU3       0.0287
     87 H34       -21.6170  -11.9632   18.1027 H           1 SU3       0.0267
     88 H35       -22.7456  -13.0589   17.3088 H           1 SU3       0.0267
     89 H36       -22.0631  -12.1056   15.0810 H           1 SU3       0.0271
     90 H37       -20.9208  -11.0494   15.8940 H           1 SU3       0.0271
     91 H38       -23.0515  -10.1065   13.8972 H           1 SU3       0.0617
     92 H39       -23.6949   -8.7453   14.8074 H           1 SU3       0.0617
     93 H40       -24.5981  -11.6162   17.0107 H           1 SU3       0.0236
     94 H41       -24.5813  -11.7043   15.2439 H           1 SU3       0.0236
     95 H42       -25.2039  -10.2637   16.0598 H           1 SU3       0.0236
     96 H43       -21.7963   -9.1370   17.4016 H           1 SU3       0.0236
     97 H44       -23.0407  -10.0600   18.2537 H           1 SU3       0.0236
     98 H45       -23.4937   -8.6477   17.3008 H           1 SU3       0.0236
     99 H46       -17.1054   -5.4654   13.9998 H           1 SU3       0.0237
    100 H47       -18.8279   -5.4425   14.4254 H           1 SU3       0.0237
    101 H48       -18.1947   -4.3571   13.1789 H           1 SU3       0.0237
    102 H49       -17.4600   -7.0637   10.6058 H           1 SU3       0.0237
    103 H50       -16.3020   -6.5647   11.8439 H           1 SU3       0.0237
    104 H51       -17.2370   -5.3493   10.9745 H           1 SU3       0.0237
    105 H52       -16.6056   -9.8013   11.3363 H           1 SU3       0.0553
    106 H53       -17.8329  -10.6873   12.2839 H           1 SU3       0.0553
@<TRIPOS>BOND
     1     1     3   2
     2     1     4   1
     3    21     1  am
     4     4     2   1
     5     2     7  am
     6     2    52   1
     7     4     5   1
     8     5     6   1
     9     6    52   1
    10     6    53   1
    11     7     8   2
    12     7     9   1
    13     9    10   1
    14     9    13   1
    15    10    11  am
    16    11    12   1
    17    11    14   2
    18    12    47   1
    19    13    20   1
    20    13    50   1
    21    13    51   1
    22    15    16   2
    23    15    17  am
    24    53    15   1
    25    17    26   1
    26    17    29   1
    27    18    19   1
    28    24    18   1
    29    22    21   1
    30    22    23   1
    31    22    24   1
    32    22    25   1
    33    23    35  am
    34    23    36   2
    35    24    25   1
    36    26    27   2
    37    27    28  ar
    38    27    30  ar
    39    28    29   2
    40    28    33  ar
    41    30    31  ar
    42    31    32  ar
    43    32    33  ar
    44    33    34   1
    45    34    43   1
    46    35    37  am
    47    37    38   1
    48    37    39   2
    49    37    40   2
    50    38    41   1
    51    38    42   1
    52    41    42   1
    53    43    44   1
    54    44    45   1
    55    45    46   1
    56    46    47   1
    57    46    48   1
    58    46    49   1
    59     4    54   1
    60     5    55   1
    61     5    56   1
    62     6    57   1
    63     9    58   1
    64    10    59   1
    65    18    60   1
    66    18    61   1
    67    19    62   1
    68    19    63   1
    69    19    64   1
    70    20    65   1
    71    20    66   1
    72    20    67   1
    73    21    68   1
    74    24    69   1
    75    25    70   1
    76    25    71   1
    77    26    72   1
    78    29    73   1
    79    30    74   1
    80    31    75   1
    81    32    76   1
    82    34    77   1
    83    34    78   1
    84    35    79   1
    85    38    80   1
    86    41    81   1
    87    41    82   1
    88    42    83   1
    89    42    84   1
    90    43    85   1
    91    43    86   1
    92    44    87   1
    93    44    88   1
    94    45    89   1
    95    45    90   1
    96    47    91   1
    97    47    92   1
    98    48    93   1
    99    48    94   1
   100    48    95   1
   101    49    96   1
   102    49    97   1
   103    49    98   1
   104    50    99   1
   105    50   100   1
   106    50   101   1
   107    51   102   1
   108    51   103   1
   109    51   104   1
   110    52   105   1
   111    52   106   1
@<TRIPOS>SUBSTRUCTURE
     1  SU3      1

