@<TRIPOS>MOLECULE
3su5_ligand_047
   106   111
SMALL
GAST_HUCK
****
This file was generated by PARSER (from files_GN.cpp)

@<TRIPOS>ATOM
      1 C         -10.7554   -5.2676    9.9195 C.2         1 SU3       0.2013
      2 N         -12.5740   -6.1091   11.3248 N.am        1 SU3      -0.2469
      3 O         -10.6865   -4.1302   10.3724 O.2         1 SU3      -0.3947
      4 CA        -12.0394   -5.9684    9.9862 C.3         1 SU3       0.1363
      5 CB        -13.1277   -5.2033    9.1875 C.3         1 SU3       0.0206
      6 CG        -14.4224   -5.5093    9.9525 C.3         1 SU3       0.1158
      7 CAF       -11.9060   -6.6883   12.3428 C.2         1 SU3       0.2070
      8 OAG       -10.8240   -7.2078   12.0849 O.2         1 SU3      -0.3942
      9 CAH       -12.3510   -6.8059   13.7471 C.3         1 SU3       0.1378
     10 NAI       -12.3323   -8.2012   14.1001 N.am        1 SU3      -0.2407
     11 CAJ       -13.3988   -8.9655   14.4360 C.2         1 SU3       0.3218
     12 OAK       -13.1606  -10.2660   14.7462 O.3         1 SU3      -0.2633
     13 CAL       -11.5440   -5.9164   14.7890 C.3         1 SU3       0.0025
     14 OAM       -14.6607   -8.4702   14.4740 O.2         1 SU3      -0.3774
     15 CAO       -15.6323   -6.9866    8.3189 C.2         1 SU3       0.4317
     16 OAP       -15.7310   -6.0002    7.3946 O.2         1 SU3      -0.3166
     17 NAQ       -16.1451   -8.2180    8.0655 N.am        1 SU3      -0.2080
     18 CAR        -6.7230   -3.2896   10.0723 C.3         1 SU3      -0.0516
     19 CAS        -6.7343   -2.2170   11.1879 C.3         1 SU3      -0.0651
     20 CAT        -9.9918   -5.9984   14.5988 C.3         1 SU3      -0.0558
     21 NAV        -9.6698   -5.8666    9.4296 N.am        1 SU3      -0.2737
     22 CAX        -8.3908   -5.2592    9.2076 C.3         1 SU3       0.1374
     23 CAY        -7.9981   -5.1171    7.8160 C.2         1 SU3       0.2444
     24 CAZ        -7.7314   -4.4449   10.3584 C.3         1 SU3      -0.0066
     25 CBA        -7.2743   -5.8827   10.0846 C.3         1 SU3      -0.0152
     26 CBB       -16.7604   -8.6049    6.9243 C.2         1 SU3       0.0383
     27 CBC       -17.1606   -9.9271    7.0588 C.ar        1 SU3      -0.0374
     28 CBD       -16.7675  -10.3579    8.3231 C.ar        1 SU3      -0.0293
     29 CBE       -16.1347   -9.2661    8.9193 C.2         1 SU3       0.0366
     30 CBF       -17.8478  -10.7811    6.1769 C.ar        1 SU3      -0.0689
     31 CBG       -18.1419  -12.0883    6.6067 C.ar        1 SU3      -0.0688
     32 CBH       -17.7485  -12.5272    7.8906 C.ar        1 SU3      -0.0606
     33 CBI       -17.0447  -11.6687    8.7762 C.ar        1 SU3      -0.0432
     34 CBJ       -16.6290  -12.1344   10.1284 C.3         1 SU3      -0.0194
     35 NBK        -7.5139   -6.1618    7.1576 N.am        1 SU3      -0.1552
     36 OBL        -8.2336   -4.0601    7.2491 O.2         1 SU3      -0.3404
     37 SBM        -7.0146   -6.1811    5.5454 S.o2        1 SU3       0.0645
     38 CBN        -5.7265   -7.4198    5.2453 C.3         1 SU3       0.1004
     39 OBO        -8.2560   -6.3730    4.5686 O.2         1 SU3      -0.1503
     40 OBP        -6.3153   -4.7935    5.2152 O.2         1 SU3      -0.1503
     41 CBQ        -5.8630   -8.7974    5.9175 C.3         1 SU3      -0.0268
     42 CBR        -6.0731   -8.6613    4.4063 C.3         1 SU3      -0.0268
     43 CBS       -15.1106  -12.4577   10.1988 C.3         1 SU3      -0.0433
     44 CBT       -14.6364  -13.0375   11.5617 C.3         1 SU3      -0.0507
     45 CBU       -14.5894  -11.9989   12.7223 C.3         1 SU3      -0.0453
     46 CBV       -14.0948  -12.4994   14.1323 C.3         1 SU3      -0.0072
     47 CBW       -14.1014  -11.2859   15.1271 C.3         1 SU3       0.0824
     48 CBX       -15.0573  -13.5925   14.7028 C.3         1 SU3      -0.0574
     49 CBY       -12.6458  -13.0836   14.0608 C.3         1 SU3      -0.0574
     50 CBZ       -11.9812   -4.4215   14.6366 C.3         1 SU3      -0.0558
     51 CCA       -11.8694   -6.3479   16.2616 C.3         1 SU3      -0.0558
     52 CD1       -13.9323   -5.6569   11.4058 C.3         1 SU3       0.0677
     53 OD2       -15.0226   -6.7375    9.5097 O.3         1 SU3      -0.2338
     54 H1        -11.9362   -6.9764    9.5600 H           1 SU3       0.0803
     55 H2        -13.1580   -5.5417    8.1505 H           1 SU3       0.0342
     56 H3        -12.9660   -4.1176    9.1914 H           1 SU3       0.0342
     57 H4        -15.1472   -4.6932    9.8771 H           1 SU3       0.0673
     58 H5        -13.3887   -6.4622   13.8249 H           1 SU3       0.0805
     59 H6        -11.4659   -8.6270   14.1188 H           1 SU3       0.1899
     60 H7         -5.7062   -3.6899    9.9894 H           1 SU3       0.0265
     61 H8         -6.9711   -2.7961    9.1308 H           1 SU3       0.0265
     62 H9         -5.9878   -1.4504   10.9565 H           1 SU3       0.0230
     63 H10        -6.4908   -2.6672   12.1554 H           1 SU3       0.0230
     64 H11        -7.7178   -1.7407   11.2608 H           1 SU3       0.0230
     65 H12        -9.4679   -5.4377   15.3759 H           1 SU3       0.0237
     66 H13        -9.6881   -5.5705   13.6428 H           1 SU3       0.0237
     67 H14        -9.6559   -7.0365   14.6398 H           1 SU3       0.0237
     68 H15        -9.7466   -6.7910    9.1503 H           1 SU3       0.1839
     69 H16        -8.3300   -4.3657   11.2754 H           1 SU3       0.0312
     70 H17        -6.2705   -5.9850    9.6551 H           1 SU3       0.0279
     71 H18        -7.5922   -6.6222   10.8263 H           1 SU3       0.0279
     72 H19       -16.9206   -8.0301    6.0930 H           1 SU3       0.0373
     73 H20       -15.7417   -9.2651    9.8628 H           1 SU3       0.0361
     74 H21       -18.1348  -10.4555    5.2517 H           1 SU3       0.0557
     75 H22       -18.6479  -12.7243    5.9845 H           1 SU3       0.0599
     76 H23       -17.9762  -13.4837    8.1728 H           1 SU3       0.0557
     77 H24       -17.1869  -13.0341   10.4040 H           1 SU3       0.0426
     78 H25       -16.8885  -11.3656   10.8591 H           1 SU3       0.0426
     79 H26        -7.4170   -6.9941    7.6525 H           1 SU3       0.2148
     80 H27        -4.6969   -7.0730    5.1411 H           1 SU3       0.0559
     81 H28        -6.7679   -8.9862    6.4957 H           1 SU3       0.0285
     82 H29        -4.9254   -9.2726    6.2184 H           1 SU3       0.0285
     83 H30        -5.2664   -9.0759    3.7946 H           1 SU3       0.0285
     84 H31        -7.1072   -8.7929    4.0834 H           1 SU3       0.0285
     85 H32       -14.5261  -11.5630    9.9693 H           1 SU3       0.0287
     86 H33       -14.8866  -13.1997    9.4254 H           1 SU3       0.0287
     87 H34       -13.6316  -13.4372   11.4106 H           1 SU3       0.0267
     88 H35       -15.2873  -13.8714   11.8301 H           1 SU3       0.0267
     89 H36       -15.5923  -11.5825   12.8438 H           1 SU3       0.0271
     90 H37       -13.9432  -11.1798   12.3948 H           1 SU3       0.0271
     91 H38       -15.1113  -10.8754   15.2007 H           1 SU3       0.0617
     92 H39       -13.8167  -11.6167   16.1292 H           1 SU3       0.0617
     93 H40       -15.0316  -14.4988   14.0958 H           1 SU3       0.0236
     94 H41       -16.0867  -13.2277   14.7278 H           1 SU3       0.0236
     95 H42       -14.7712  -13.8708   15.7199 H           1 SU3       0.0236
     96 H43       -11.9660  -12.3749   13.5836 H           1 SU3       0.0236
     97 H44       -12.6230  -14.0131   13.4902 H           1 SU3       0.0236
     98 H45       -12.2651  -13.3009   15.0618 H           1 SU3       0.0236
     99 H46       -13.0464   -4.3018   14.8483 H           1 SU3       0.0237
    100 H47       -11.7960   -4.0678   13.6203 H           1 SU3       0.0237
    101 H48       -11.4302   -3.7811   15.3286 H           1 SU3       0.0237
    102 H49       -11.5019   -7.3586   16.4636 H           1 SU3       0.0237
    103 H50       -12.9474   -6.3379   16.4437 H           1 SU3       0.0237
    104 H51       -11.3962   -5.6762   16.9847 H           1 SU3       0.0237
    105 H52       -13.9763   -4.6982   11.9332 H           1 SU3       0.0553
    106 H53       -14.5733   -6.3801   11.9168 H           1 SU3       0.0553
@<TRIPOS>BOND
     1     1     3   2
     2     1     4   1
     3    21     1  am
     4     4     2   1
     5     2     7  am
     6     2    52   1
     7     4     5   1
     8     5     6   1
     9     6    52   1
    10     6    53   1
    11     7     8   2
    12     7     9   1
    13     9    10   1
    14     9    13   1
    15    10    11  am
    16    11    12   1
    17    11    14   2
    18    12    47   1
    19    13    20   1
    20    13    50   1
    21    13    51   1
    22    15    16   2
    23    15    17  am
    24    53    15   1
    25    17    26   1
    26    17    29   1
    27    18    19   1
    28    24    18   1
    29    22    21   1
    30    22    23   1
    31    22    24   1
    32    22    25   1
    33    23    35  am
    34    23    36   2
    35    24    25   1
    36    26    27   2
    37    27    28  ar
    38    27    30  ar
    39    28    29   2
    40    28    33  ar
    41    30    31  ar
    42    31    32  ar
    43    32    33  ar
    44    33    34   1
    45    34    43   1
    46    35    37  am
    47    37    38   1
    48    37    39   2
    49    37    40   2
    50    38    41   1
    51    38    42   1
    52    41    42   1
    53    43    44   1
    54    44    45   1
    55    45    46   1
    56    46    47   1
    57    46    48   1
    58    46    49   1
    59     4    54   1
    60     5    55   1
    61     5    56   1
    62     6    57   1
    63     9    58   1
    64    10    59   1
    65    18    60   1
    66    18    61   1
    67    19    62   1
    68    19    63   1
    69    19    64   1
    70    20    65   1
    71    20    66   1
    72    20    67   1
    73    21    68   1
    74    24    69   1
    75    25    70   1
    76    25    71   1
    77    26    72   1
    78    29    73   1
    79    30    74   1
    80    31    75   1
    81    32    76   1
    82    34    77   1
    83    34    78   1
    84    35    79   1
    85    38    80   1
    86    41    81   1
    87    41    82   1
    88    42    83   1
    89    42    84   1
    90    43    85   1
    91    43    86   1
    92    44    87   1
    93    44    88   1
    94    45    89   1
    95    45    90   1
    96    47    91   1
    97    47    92   1
    98    48    93   1
    99    48    94   1
   100    48    95   1
   101    49    96   1
   102    49    97   1
   103    49    98   1
   104    50    99   1
   105    50   100   1
   106    50   101   1
   107    51   102   1
   108    51   103   1
   109    51   104   1
   110    52   105   1
   111    52   106   1
@<TRIPOS>SUBSTRUCTURE
     1  SU3      1

