@<TRIPOS>MOLECULE
3su5_ligand_028
   106   111
SMALL
GAST_HUCK
****
This file was generated by PARSER (from files_GN.cpp)

@<TRIPOS>ATOM
      1 C          -7.1280   -4.1232    9.9759 C.2         1 SU3       0.2013
      2 N          -6.3464   -2.6967    8.1017 N.am        1 SU3      -0.2469
      3 O          -8.0102   -4.5243    9.2169 O.2         1 SU3      -0.3947
      4 CA         -6.1694   -3.1363    9.4730 C.3         1 SU3       0.1363
      5 CB         -6.2120   -1.8457   10.3288 C.3         1 SU3       0.0206
      6 CG         -5.8932   -0.7157    9.3390 C.3         1 SU3       0.1158
      7 CAF        -6.3827   -3.5428    7.0484 C.2         1 SU3       0.2070
      8 OAG        -6.0450   -4.7098    7.2350 O.2         1 SU3      -0.3942
      9 CAH        -6.7152   -3.2078    5.6517 C.3         1 SU3       0.1378
     10 NAI        -5.5242   -3.4589    4.8743 N.am        1 SU3      -0.2407
     11 CAJ        -4.9061   -2.5885    4.0395 C.2         1 SU3       0.3218
     12 OAK        -3.8545   -3.0470    3.3077 O.3         1 SU3      -0.2633
     13 CAL        -8.0348   -3.8962    5.0525 C.3         1 SU3       0.0025
     14 OAM        -5.3547   -1.3205    3.8663 O.2         1 SU3      -0.3774
     15 CAO        -3.6301    0.0778   10.1434 C.2         1 SU3       0.4317
     16 OAP        -4.0856    0.3791   11.3855 O.2         1 SU3      -0.3166
     17 NAQ        -2.3431    0.3452    9.7994 N.am        1 SU3      -0.2080
     18 CAR        -7.3818   -8.1582   12.7591 C.3         1 SU3      -0.0516
     19 CAS        -6.9122   -8.7307   14.1147 C.3         1 SU3      -0.0651
     20 CAT        -9.1788   -2.8234    4.9725 C.3         1 SU3      -0.0558
     21 NAV        -7.0479   -4.5628   11.2259 N.am        1 SU3      -0.2737
     22 CAX        -7.8171   -5.6093   11.8536 C.3         1 SU3       0.1374
     23 CAY        -9.1276   -5.9925   11.3385 C.2         1 SU3       0.2444
     24 CAZ        -6.9447   -6.6829   12.5642 C.3         1 SU3      -0.0066
     25 CBA        -7.6881   -5.6281   13.3954 C.3         1 SU3      -0.0152
     26 CBB        -1.3999    0.8847   10.6051 C.2         1 SU3       0.0383
     27 CBC        -0.2364    1.0753    9.8696 C.ar        1 SU3      -0.0374
     28 CBD        -0.4825    0.6204    8.5760 C.ar        1 SU3      -0.0293
     29 CBE        -1.7982    0.1615    8.5729 C.2         1 SU3       0.0366
     30 CBF         1.0031    1.6293   10.2277 C.ar        1 SU3      -0.0689
     31 CBG         2.0065    1.7224    9.2420 C.ar        1 SU3      -0.0688
     32 CBH         1.7597    1.2679    7.9275 C.ar        1 SU3      -0.0606
     33 CBI         0.5078    0.7069    7.5674 C.ar        1 SU3      -0.0432
     34 CBJ         0.2596    0.2348    6.1778 C.3         1 SU3      -0.0194
     35 NBK        -9.2034   -6.8594   10.3377 N.am        1 SU3      -0.1552
     36 OBL       -10.1063   -5.3771   11.7423 O.2         1 SU3      -0.3404
     37 SBM       -10.6239   -7.2748    9.5263 S.o2        1 SU3       0.0645
     38 CBN       -11.7168   -8.4390   10.3772 C.3         1 SU3       0.1004
     39 OBO       -11.3720   -5.9889    8.9628 O.2         1 SU3      -0.1503
     40 OBP       -10.1317   -7.9929    8.1956 O.2         1 SU3      -0.1503
     41 CBQ       -11.4962   -8.6696   11.8812 C.3         1 SU3      -0.0268
     42 CBR       -12.7142   -7.8689   11.3962 C.3         1 SU3      -0.0268
     43 CBS         0.3762   -1.3096    6.0619 C.3         1 SU3      -0.0433
     44 CBT         0.2195   -1.8570    4.6148 C.3         1 SU3      -0.0507
     45 CBU        -1.2430   -1.8368    4.0803 C.3         1 SU3      -0.0453
     46 CBV        -1.5162   -2.4568    2.6596 C.3         1 SU3      -0.0072
     47 CBW        -3.0485   -2.3364    2.3471 C.3         1 SU3       0.0824
     48 CBX        -0.7217   -1.6848    1.5536 C.3         1 SU3      -0.0574
     49 CBY        -1.1113   -3.9663    2.6020 C.3         1 SU3      -0.0574
     50 CBZ        -7.8079   -4.4382    3.5966 C.3         1 SU3      -0.0558
     51 CCA        -8.6054   -5.1039    5.8816 C.3         1 SU3      -0.0558
     52 CD1        -6.4306   -1.2671    8.0039 C.3         1 SU3       0.0677
     53 OD2        -4.4852   -0.4436    9.2180 O.3         1 SU3      -0.2338
     54 H1         -5.1682   -3.5731    9.5330 H           1 SU3       0.0803
     55 H2         -5.4949   -1.8989   11.1498 H           1 SU3       0.0342
     56 H3         -7.2088   -1.6704   10.7476 H           1 SU3       0.0342
     57 H4         -6.4158    0.2086    9.6074 H           1 SU3       0.0673
     58 H5         -6.8940   -2.1329    5.6090 H           1 SU3       0.0805
     59 H6         -5.1211   -4.3354    4.9710 H           1 SU3       0.1899
     60 H7         -8.4672   -8.2588   12.7020 H           1 SU3       0.0265
     61 H8         -6.9441   -8.7514   11.9525 H           1 SU3       0.0265
     62 H9         -7.1534   -9.7935   14.1661 H           1 SU3       0.0230
     63 H10        -7.4175   -8.2207   14.9389 H           1 SU3       0.0230
     64 H11        -5.8322   -8.6115   14.2316 H           1 SU3       0.0230
     65 H12       -10.1153   -3.2456    4.5963 H           1 SU3       0.0237
     66 H13        -8.8931   -2.0052    4.3052 H           1 SU3       0.0237
     67 H14        -9.3694   -2.3995    5.9603 H           1 SU3       0.0237
     68 H15        -6.3617   -4.1553   11.7844 H           1 SU3       0.1839
     69 H16        -5.8667   -6.5011   12.5293 H           1 SU3       0.0312
     70 H17        -8.5510   -5.9828   13.9634 H           1 SU3       0.0279
     71 H18        -7.0511   -4.8653   13.8478 H           1 SU3       0.0279
     72 H19        -1.5159    1.1438   11.5890 H           1 SU3       0.0373
     73 H20        -2.2808   -0.2183    7.7577 H           1 SU3       0.0361
     74 H21         1.1733    1.9664   11.1769 H           1 SU3       0.0557
     75 H22         2.9176    2.1233    9.4786 H           1 SU3       0.0599
     76 H23         2.5106    1.3460    7.2336 H           1 SU3       0.0557
     77 H24         0.9816    0.6879    5.4915 H           1 SU3       0.0426
     78 H25        -0.7300    0.5665    5.8579 H           1 SU3       0.0426
     79 H26        -8.3802   -7.2553   10.0048 H           1 SU3       0.2148
     80 H27       -12.0566   -9.3204    9.8298 H           1 SU3       0.0559
     81 H28       -10.7273   -8.0753   12.3810 H           1 SU3       0.0285
     82 H29       -11.7268   -9.6709   12.2550 H           1 SU3       0.0285
     83 H30       -13.6708   -8.3895   11.4690 H           1 SU3       0.0285
     84 H31       -12.6689   -6.7992   11.6094 H           1 SU3       0.0285
     85 H32        -0.3640   -1.7884    6.7105 H           1 SU3       0.0287
     86 H33         1.3662   -1.6048    6.4262 H           1 SU3       0.0287
     87 H34         0.5769   -2.8874    4.6220 H           1 SU3       0.0267
     88 H35         0.8717   -1.2872    3.9503 H           1 SU3       0.0267
     89 H36        -1.5832   -0.7984    4.0695 H           1 SU3       0.0271
     90 H37        -1.8580   -2.3664    4.8129 H           1 SU3       0.0271
     91 H38        -3.3360   -1.2822    2.2964 H           1 SU3       0.0617
     92 H39        -3.2653   -2.7723    1.3693 H           1 SU3       0.0617
     93 H40         0.3555   -1.8059    1.6841 H           1 SU3       0.0236
     94 H41        -0.9494   -0.6168    1.5850 H           1 SU3       0.0236
     95 H42        -0.9753   -2.0573    0.5580 H           1 SU3       0.0236
     96 H43        -1.5672   -4.5225    3.4239 H           1 SU3       0.0236
     97 H44        -0.0290   -4.0865    2.6667 H           1 SU3       0.0236
     98 H45        -1.4347   -4.4219    1.6625 H           1 SU3       0.0236
     99 H46        -7.0514   -5.2293    3.5971 H           1 SU3       0.0237
    100 H47        -7.4678   -3.6392    2.9327 H           1 SU3       0.0237
    101 H48        -8.7259   -4.8594    3.1728 H           1 SU3       0.0237
    102 H49        -8.8789   -4.7849    6.8907 H           1 SU3       0.0237
    103 H50        -7.8630   -5.9056    5.9548 H           1 SU3       0.0237
    104 H51        -9.5071   -5.5198    5.4153 H           1 SU3       0.0237
    105 H52        -7.4701   -0.9691    7.8477 H           1 SU3       0.0553
    106 H53        -5.8187   -0.8729    7.1878 H           1 SU3       0.0553
@<TRIPOS>BOND
     1     1     3   2
     2     1     4   1
     3    21     1  am
     4     4     2   1
     5     2     7  am
     6     2    52   1
     7     4     5   1
     8     5     6   1
     9     6    52   1
    10     6    53   1
    11     7     8   2
    12     7     9   1
    13     9    10   1
    14     9    13   1
    15    10    11  am
    16    11    12   1
    17    11    14   2
    18    12    47   1
    19    13    20   1
    20    13    50   1
    21    13    51   1
    22    15    16   2
    23    15    17  am
    24    53    15   1
    25    17    26   1
    26    17    29   1
    27    18    19   1
    28    24    18   1
    29    22    21   1
    30    22    23   1
    31    22    24   1
    32    22    25   1
    33    23    35  am
    34    23    36   2
    35    24    25   1
    36    26    27   2
    37    27    28  ar
    38    27    30  ar
    39    28    29   2
    40    28    33  ar
    41    30    31  ar
    42    31    32  ar
    43    32    33  ar
    44    33    34   1
    45    34    43   1
    46    35    37  am
    47    37    38   1
    48    37    39   2
    49    37    40   2
    50    38    41   1
    51    38    42   1
    52    41    42   1
    53    43    44   1
    54    44    45   1
    55    45    46   1
    56    46    47   1
    57    46    48   1
    58    46    49   1
    59     4    54   1
    60     5    55   1
    61     5    56   1
    62     6    57   1
    63     9    58   1
    64    10    59   1
    65    18    60   1
    66    18    61   1
    67    19    62   1
    68    19    63   1
    69    19    64   1
    70    20    65   1
    71    20    66   1
    72    20    67   1
    73    21    68   1
    74    24    69   1
    75    25    70   1
    76    25    71   1
    77    26    72   1
    78    29    73   1
    79    30    74   1
    80    31    75   1
    81    32    76   1
    82    34    77   1
    83    34    78   1
    84    35    79   1
    85    38    80   1
    86    41    81   1
    87    41    82   1
    88    42    83   1
    89    42    84   1
    90    43    85   1
    91    43    86   1
    92    44    87   1
    93    44    88   1
    94    45    89   1
    95    45    90   1
    96    47    91   1
    97    47    92   1
    98    48    93   1
    99    48    94   1
   100    48    95   1
   101    49    96   1
   102    49    97   1
   103    49    98   1
   104    50    99   1
   105    50   100   1
   106    50   101   1
   107    51   102   1
   108    51   103   1
   109    51   104   1
   110    52   105   1
   111    52   106   1
@<TRIPOS>SUBSTRUCTURE
     1  SU3      1

