@<TRIPOS>MOLECULE
3su5_ligand_084
   106   111
SMALL
GAST_HUCK
****
This file was generated by PARSER (from files_GN.cpp)

@<TRIPOS>ATOM
      1 C         -15.5147   -9.2513   14.0621 C.2         1 SU3       0.2013
      2 N         -16.5592  -11.3315   14.6707 N.am        1 SU3      -0.2469
      3 O         -15.6951   -8.7049   15.1453 O.2         1 SU3      -0.3947
      4 CA        -16.4254  -10.3146   13.6498 C.3         1 SU3       0.1363
      5 CB        -17.8628   -9.8002   13.3942 C.3         1 SU3       0.0206
      6 CG        -18.6117  -10.0961   14.7010 C.3         1 SU3       0.1158
      7 CAF       -15.5958  -12.2297   14.9646 C.2         1 SU3       0.2070
      8 OAG       -14.6032  -12.2463   14.2474 O.2         1 SU3      -0.3942
      9 CAH       -15.6807  -13.2451   16.0313 C.3         1 SU3       0.1378
     10 NAI       -16.4352  -14.3512   15.5039 N.am        1 SU3      -0.2407
     11 CAJ       -17.5574  -14.8969   16.0333 C.2         1 SU3       0.3218
     12 OAK       -18.0239  -16.0428   15.4657 O.3         1 SU3      -0.2633
     13 CAL       -14.3348  -13.7497   16.7113 C.3         1 SU3       0.0025
     14 OAM       -18.1338  -14.3939   17.1517 O.2         1 SU3      -0.3774
     15 CAO       -21.0154   -9.6828   14.0417 C.2         1 SU3       0.4317
     16 OAP       -20.8272   -8.3685   13.7738 O.2         1 SU3      -0.3166
     17 NAQ       -22.2117  -10.2817   13.8258 N.am        1 SU3      -0.2080
     18 CAR       -11.8881   -7.0855   15.5449 C.3         1 SU3      -0.0516
     19 CAS       -12.7437   -6.6944   16.7670 C.3         1 SU3      -0.0651
     20 CAT       -14.6912  -14.6736   17.9278 C.3         1 SU3      -0.0558
     21 NAV       -14.5451   -8.8500   13.2495 N.am        1 SU3      -0.2737
     22 CAX       -13.5935   -7.8205   13.5459 C.3         1 SU3       0.1374
     23 CAY       -14.0057   -6.4303   13.3392 C.2         1 SU3       0.2444
     24 CAZ       -12.5740   -8.1630   14.6669 C.3         1 SU3      -0.0066
     25 CBA       -12.1445   -8.2424   13.1948 C.3         1 SU3      -0.0152
     26 CBB       -23.3454   -9.7021   13.3671 C.2         1 SU3       0.0383
     27 CBC       -24.3241  -10.6824   13.2265 C.ar        1 SU3      -0.0374
     28 CBD       -23.7527  -11.8942   13.6104 C.ar        1 SU3      -0.0293
     29 CBE       -22.4503  -11.6016   13.9978 C.2         1 SU3       0.0366
     30 CBF       -25.6566  -10.6219   12.7844 C.ar        1 SU3      -0.0689
     31 CBG       -26.4018  -11.8164   12.7326 C.ar        1 SU3      -0.0688
     32 CBH       -25.8158  -13.0463   13.1095 C.ar        1 SU3      -0.0606
     33 CBI       -24.4694  -13.1124   13.5511 C.ar        1 SU3      -0.0432
     34 CBJ       -23.8304  -14.4044   13.9249 C.3         1 SU3      -0.0194
     35 NBK       -15.2680   -6.0952   13.5566 N.am        1 SU3      -0.1552
     36 OBL       -13.2073   -5.5942   12.9300 O.2         1 SU3      -0.3404
     37 SBM       -15.9257   -4.5610   13.3382 S.o2        1 SU3       0.0645
     38 CBN       -15.1490   -3.2859   14.3543 C.3         1 SU3       0.1004
     39 OBO       -15.9145   -4.1965   11.7900 O.2         1 SU3      -0.1503
     40 OBP       -17.4528   -4.7206   13.7553 O.2         1 SU3      -0.1503
     41 CBQ       -15.9402   -2.6399   15.5005 C.3         1 SU3      -0.0268
     42 CBR       -14.8641   -3.6850   15.8088 C.3         1 SU3      -0.0268
     43 CBS       -22.7941  -14.8839   12.8673 C.3         1 SU3      -0.0433
     44 CBT       -22.0329  -16.1848   13.2479 C.3         1 SU3      -0.0507
     45 CBU       -20.9305  -16.0034   14.3392 C.3         1 SU3      -0.0453
     46 CBV       -20.1222  -17.2832   14.7757 C.3         1 SU3      -0.0072
     47 CBW       -19.1002  -16.8939   15.9043 C.3         1 SU3       0.0824
     48 CBX       -21.0849  -18.3707   15.3613 C.3         1 SU3      -0.0574
     49 CBY       -19.3412  -17.9025   13.5711 C.3         1 SU3      -0.0574
     50 CBZ       -13.4131  -14.5794   15.7515 C.3         1 SU3      -0.0558
     51 CCA       -13.5081  -12.5445   17.2743 C.3         1 SU3      -0.0558
     52 CD1       -17.8529  -11.2985   15.2933 C.3         1 SU3       0.0677
     53 OD2       -19.9809  -10.4418   14.4875 O.3         1 SU3      -0.2338
     54 H1        -16.0769  -10.7723   12.7158 H           1 SU3       0.0803
     55 H2        -18.3168  -10.3688   12.5738 H           1 SU3       0.0342
     56 H3        -17.9044   -8.7358   13.1387 H           1 SU3       0.0342
     57 H4        -18.5374   -9.2405   15.3777 H           1 SU3       0.0673
     58 H5        -16.2349  -12.7786   16.8466 H           1 SU3       0.0805
     59 H6        -16.0584  -14.8081   14.7374 H           1 SU3       0.1899
     60 H7        -10.9354   -7.4866   15.8913 H           1 SU3       0.0265
     61 H8        -11.6730   -6.1840   14.9710 H           1 SU3       0.0265
     62 H9        -12.2377   -5.9124   17.3388 H           1 SU3       0.0230
     63 H10       -12.9128   -7.5533   17.4161 H           1 SU3       0.0230
     64 H11       -13.7121   -6.3188   16.4377 H           1 SU3       0.0230
     65 H12       -13.7928  -15.0026   18.4545 H           1 SU3       0.0237
     66 H13       -15.2218  -15.5674   17.5966 H           1 SU3       0.0237
     67 H14       -15.3256  -14.1482   18.6449 H           1 SU3       0.0237
     68 H15       -14.4768   -9.2772   12.3803 H           1 SU3       0.1839
     69 H16       -12.6890   -9.1535   15.1188 H           1 SU3       0.0312
     70 H17       -11.4421   -7.4761   12.8614 H           1 SU3       0.0279
     71 H18       -11.9958   -9.2614   12.8250 H           1 SU3       0.0279
     72 H19       -23.4691   -8.7128   13.1388 H           1 SU3       0.0373
     73 H20       -21.7750  -12.2937   14.3326 H           1 SU3       0.0361
     74 H21       -26.0740   -9.7326   12.5052 H           1 SU3       0.0557
     75 H22       -27.3723  -11.7947   12.4123 H           1 SU3       0.0599
     76 H23       -26.3782  -13.8985   13.0482 H           1 SU3       0.0557
     77 H24       -24.5894  -15.1835   14.0373 H           1 SU3       0.0426
     78 H25       -23.3548  -14.2839   14.9000 H           1 SU3       0.0426
     79 H26       -15.8893   -6.7893   13.8218 H           1 SU3       0.2148
     80 H27       -14.3536   -2.6835   13.9086 H           1 SU3       0.0559
     81 H28       -16.9738   -2.9694   15.6305 H           1 SU3       0.0285
     82 H29       -15.6783   -1.6084   15.7354 H           1 SU3       0.0285
     83 H30       -13.9404   -3.2950   16.2433 H           1 SU3       0.0285
     84 H31       -15.2632   -4.6365   16.1635 H           1 SU3       0.0285
     85 H32       -22.0613  -14.1012   12.6626 H           1 SU3       0.0287
     86 H33       -23.3343  -15.0693   11.9339 H           1 SU3       0.0287
     87 H34       -21.5606  -16.5615   12.3379 H           1 SU3       0.0267
     88 H35       -22.7662  -16.9261   13.5699 H           1 SU3       0.0267
     89 H36       -21.4047  -15.5831   15.2290 H           1 SU3       0.0271
     90 H37       -20.2222  -15.2541   13.9738 H           1 SU3       0.0271
     91 H38       -19.6311  -16.4436   16.7471 H           1 SU3       0.0617
     92 H39       -18.6181  -17.7992   16.2824 H           1 SU3       0.0617
     93 H40       -21.7571  -18.7614   14.5956 H           1 SU3       0.0236
     94 H41       -21.6917  -17.9561   16.1693 H           1 SU3       0.0236
     95 H42       -20.5221  -19.2185   15.7593 H           1 SU3       0.0236
     96 H43       -18.7180  -17.1502   13.0841 H           1 SU3       0.0236
     97 H44       -20.0258  -18.3106   12.8256 H           1 SU3       0.0236
     98 H45       -18.6950  -18.7173   13.9056 H           1 SU3       0.0236
     99 H46       -13.0112  -13.9709   14.9423 H           1 SU3       0.0237
    100 H47       -13.9587  -15.4170   15.3111 H           1 SU3       0.0237
    101 H48       -12.5541  -14.9851   16.2936 H           1 SU3       0.0237
    102 H49       -14.0996  -11.9623   17.9822 H           1 SU3       0.0237
    103 H50       -13.1813  -11.8781   16.4735 H           1 SU3       0.0237
    104 H51       -12.6154  -12.8933   17.7993 H           1 SU3       0.0237
    105 H52       -17.7834  -11.1740   16.3758 H           1 SU3       0.0553
    106 H53       -18.3803  -12.2302   15.0735 H           1 SU3       0.0553
@<TRIPOS>BOND
     1     1     3   2
     2     1     4   1
     3    21     1  am
     4     4     2   1
     5     2     7  am
     6     2    52   1
     7     4     5   1
     8     5     6   1
     9     6    52   1
    10     6    53   1
    11     7     8   2
    12     7     9   1
    13     9    10   1
    14     9    13   1
    15    10    11  am
    16    11    12   1
    17    11    14   2
    18    12    47   1
    19    13    20   1
    20    13    50   1
    21    13    51   1
    22    15    16   2
    23    15    17  am
    24    53    15   1
    25    17    26   1
    26    17    29   1
    27    18    19   1
    28    24    18   1
    29    22    21   1
    30    22    23   1
    31    22    24   1
    32    22    25   1
    33    23    35  am
    34    23    36   2
    35    24    25   1
    36    26    27   2
    37    27    28  ar
    38    27    30  ar
    39    28    29   2
    40    28    33  ar
    41    30    31  ar
    42    31    32  ar
    43    32    33  ar
    44    33    34   1
    45    34    43   1
    46    35    37  am
    47    37    38   1
    48    37    39   2
    49    37    40   2
    50    38    41   1
    51    38    42   1
    52    41    42   1
    53    43    44   1
    54    44    45   1
    55    45    46   1
    56    46    47   1
    57    46    48   1
    58    46    49   1
    59     4    54   1
    60     5    55   1
    61     5    56   1
    62     6    57   1
    63     9    58   1
    64    10    59   1
    65    18    60   1
    66    18    61   1
    67    19    62   1
    68    19    63   1
    69    19    64   1
    70    20    65   1
    71    20    66   1
    72    20    67   1
    73    21    68   1
    74    24    69   1
    75    25    70   1
    76    25    71   1
    77    26    72   1
    78    29    73   1
    79    30    74   1
    80    31    75   1
    81    32    76   1
    82    34    77   1
    83    34    78   1
    84    35    79   1
    85    38    80   1
    86    41    81   1
    87    41    82   1
    88    42    83   1
    89    42    84   1
    90    43    85   1
    91    43    86   1
    92    44    87   1
    93    44    88   1
    94    45    89   1
    95    45    90   1
    96    47    91   1
    97    47    92   1
    98    48    93   1
    99    48    94   1
   100    48    95   1
   101    49    96   1
   102    49    97   1
   103    49    98   1
   104    50    99   1
   105    50   100   1
   106    50   101   1
   107    51   102   1
   108    51   103   1
   109    51   104   1
   110    52   105   1
   111    52   106   1
@<TRIPOS>SUBSTRUCTURE
     1  SU3      1

