@<TRIPOS>MOLECULE
3su5_ligand_031
   106   111
SMALL
GAST_HUCK
****
This file was generated by PARSER (from files_GN.cpp)

@<TRIPOS>ATOM
      1 C         -16.5845   -5.6854   10.8647 C.2         1 SU3       0.2013
      2 N         -14.3460   -6.4245   10.8288 N.am        1 SU3      -0.2469
      3 O         -17.2610   -6.3398   10.0696 O.2         1 SU3      -0.3947
      4 CA        -15.2172   -5.3203   10.5150 C.3         1 SU3       0.1363
      5 CB        -14.9573   -5.0052    9.0175 C.3         1 SU3       0.0206
      6 CG        -14.2439   -6.2432    8.4376 C.3         1 SU3       0.1158
      7 CAF       -13.9678   -6.7382   12.0835 C.2         1 SU3       0.2070
      8 OAG       -14.1703   -5.9037   12.9619 O.2         1 SU3      -0.3942
      9 CAH       -13.2446   -7.9479   12.5108 C.3         1 SU3       0.1378
     10 NAI       -11.9565   -7.5171   12.9871 N.am        1 SU3      -0.2407
     11 CAJ       -10.7525   -7.9073   12.4914 C.2         1 SU3       0.3218
     12 OAK        -9.6432   -7.4800   13.1423 O.3         1 SU3      -0.2633
     13 CAL       -13.9984   -8.8894   13.5436 C.3         1 SU3       0.0025
     14 OAM       -10.6530   -8.7513   11.4344 O.2         1 SU3      -0.3774
     15 CAO       -12.7889   -5.2352    6.6227 C.2         1 SU3       0.4317
     16 OAP       -13.8457   -4.8563    5.8634 O.2         1 SU3      -0.3166
     17 NAQ       -11.5161   -4.9557    6.2406 N.am        1 SU3      -0.2080
     18 CAR       -19.5645   -8.1510   13.3626 C.3         1 SU3      -0.0516
     19 CAS       -19.2714   -9.5020   14.0506 C.3         1 SU3      -0.0651
     20 CAT       -14.7587   -8.1207   14.6770 C.3         1 SU3      -0.0558
     21 NAV       -17.0621   -5.4025   12.0757 N.am        1 SU3      -0.2737
     22 CAX       -18.2946   -5.8548   12.6289 C.3         1 SU3       0.1374
     23 CAY       -19.5089   -5.3150   12.0550 C.2         1 SU3       0.2444
     24 CAZ       -18.2996   -7.2570   13.2911 C.3         1 SU3      -0.0066
     25 CBA       -18.2490   -5.9938   14.1686 C.3         1 SU3      -0.0152
     26 CBB       -11.1387   -4.3197    5.1053 C.2         1 SU3       0.0383
     27 CBC        -9.7532   -4.2077    5.0916 C.ar        1 SU3      -0.0374
     28 CBD        -9.2774   -4.7949    6.2642 C.ar        1 SU3      -0.0293
     29 CBE       -10.3994   -5.2556    6.9445 C.2         1 SU3       0.0366
     30 CBF        -8.8762   -3.6386    4.1533 C.ar        1 SU3      -0.0689
     31 CBG        -7.4958   -3.6759    4.4176 C.ar        1 SU3      -0.0688
     32 CBH        -7.0078   -4.2658    5.6038 C.ar        1 SU3      -0.0606
     33 CBI        -7.8915   -4.8350    6.5594 C.ar        1 SU3      -0.0432
     34 CBJ        -7.3732   -5.4260    7.8250 C.3         1 SU3      -0.0194
     35 NBK       -20.1050   -5.9391   11.0667 N.am        1 SU3      -0.1552
     36 OBL       -19.8759   -4.1973   12.4245 O.2         1 SU3      -0.3404
     37 SBM       -21.5208   -5.4293   10.2904 S.o2        1 SU3       0.0645
     38 CBN       -23.0594   -6.2291   10.7980 C.3         1 SU3       0.1004
     39 OBO       -21.6428   -3.8454   10.2306 O.2         1 SU3      -0.1503
     40 OBP       -21.2956   -5.8021    8.7580 O.2         1 SU3      -0.1503
     41 CBQ       -23.1183   -6.8073   12.2201 C.3         1 SU3      -0.0268
     42 CBR       -23.9265   -5.5566   11.8741 C.3         1 SU3      -0.0268
     43 CBS        -7.6053   -4.4897    9.0417 C.3         1 SU3      -0.0433
     44 CBT        -7.0221   -5.0021   10.3886 C.3         1 SU3      -0.0507
     45 CBU        -7.8742   -6.1141   11.0662 C.3         1 SU3      -0.0453
     46 CBV        -7.3811   -6.6506   12.4637 C.3         1 SU3      -0.0072
     47 CBW        -8.2790   -7.8597   12.8844 C.3         1 SU3       0.0824
     48 CBX        -5.9076   -7.1647   12.3776 C.3         1 SU3      -0.0574
     49 CBY        -7.4808   -5.5477   13.5671 C.3         1 SU3      -0.0574
     50 CBZ       -15.0151   -9.7895   12.7600 C.3         1 SU3      -0.0558
     51 CCA       -12.9812   -9.8483   14.2533 C.3         1 SU3      -0.0558
     52 CD1       -13.9438   -7.1426    9.6584 C.3         1 SU3       0.0677
     53 OD2       -13.0076   -5.8977    7.7899 O.3         1 SU3      -0.2338
     54 H1        -14.9188   -4.4263   11.0780 H           1 SU3       0.0803
     55 H2        -14.2997   -4.1324    8.9402 H           1 SU3       0.0342
     56 H3        -15.8750   -4.7808    8.4688 H           1 SU3       0.0342
     57 H4        -14.8926   -6.7764    7.7332 H           1 SU3       0.0673
     58 H5        -13.0795   -8.5811   11.6358 H           1 SU3       0.0805
     59 H6        -11.9423   -6.9272   13.7596 H           1 SU3       0.1899
     60 H7        -20.3664   -7.6536   13.9090 H           1 SU3       0.0265
     61 H8        -19.9075   -8.3490   12.3465 H           1 SU3       0.0265
     62 H9        -20.1824  -10.1036   14.0984 H           1 SU3       0.0230
     63 H10       -18.9054   -9.3421   15.0687 H           1 SU3       0.0230
     64 H11       -18.5180  -10.0577   13.4861 H           1 SU3       0.0230
     65 H12       -15.1798   -8.8214   15.4053 H           1 SU3       0.0237
     66 H13       -15.5920   -7.5416   14.2793 H           1 SU3       0.0237
     67 H14       -14.0859   -7.4453   15.2048 H           1 SU3       0.0237
     68 H15       -16.4822   -4.8888   12.6634 H           1 SU3       0.1839
     69 H16       -17.3421   -7.7684   13.2117 H           1 SU3       0.0312
     70 H17       -19.1586   -5.7646   14.7268 H           1 SU3       0.0279
     71 H18       -17.2864   -5.8219   14.6545 H           1 SU3       0.0279
     72 H19       -11.7600   -3.9725    4.3713 H           1 SU3       0.0373
     73 H20       -10.3763   -5.7429    7.8457 H           1 SU3       0.0361
     74 H21        -9.2339   -3.2085    3.2996 H           1 SU3       0.0557
     75 H22        -6.8385   -3.2680    3.7476 H           1 SU3       0.0599
     76 H23        -5.9980   -4.2674    5.7732 H           1 SU3       0.0557
     77 H24        -6.3010   -5.6167    7.7366 H           1 SU3       0.0426
     78 H25        -7.8570   -6.3894    7.9898 H           1 SU3       0.0426
     79 H26       -19.7136   -6.7719   10.7557 H           1 SU3       0.2148
     80 H27       -23.6154   -6.8006   10.0520 H           1 SU3       0.0559
     81 H28       -22.2867   -6.6120   12.8976 H           1 SU3       0.0285
     82 H29       -23.7117   -7.7152   12.3524 H           1 SU3       0.0285
     83 H30       -25.0044   -5.7177   11.7970 H           1 SU3       0.0285
     84 H31       -23.5550   -4.6364   12.3302 H           1 SU3       0.0285
     85 H32        -8.6754   -4.3182    9.1696 H           1 SU3       0.0287
     86 H33        -7.1360   -3.5251    8.8224 H           1 SU3       0.0287
     87 H34        -6.9596   -4.1484   11.0676 H           1 SU3       0.0267
     88 H35        -6.0048   -5.3586   10.2104 H           1 SU3       0.0267
     89 H36        -7.9313   -6.9536   10.3712 H           1 SU3       0.0271
     90 H37        -8.8921   -5.7311   11.1811 H           1 SU3       0.0271
     91 H38        -8.2233   -8.6408   12.1208 H           1 SU3       0.0617
     92 H39        -7.9078   -8.2994   13.8129 H           1 SU3       0.0617
     93 H40        -5.2103   -6.3420   12.2126 H           1 SU3       0.0236
     94 H41        -5.7936   -7.8816   11.5625 H           1 SU3       0.0236
     95 H42        -5.6198   -7.6608   13.3062 H           1 SU3       0.0236
     96 H43        -8.4879   -5.1297   13.6080 H           1 SU3       0.0236
     97 H44        -6.7852   -4.7321   13.3757 H           1 SU3       0.0236
     98 H45        -7.2459   -5.9624   14.5495 H           1 SU3       0.0236
     99 H46       -14.4895  -10.5043   12.1216 H           1 SU3       0.0237
    100 H47       -15.6469   -9.1844   12.1103 H           1 SU3       0.0237
    101 H48       -15.6584  -10.3550   13.4392 H           1 SU3       0.0237
    102 H49       -12.3221   -9.2819   14.9142 H           1 SU3       0.0237
    103 H50       -12.3615  -10.3766   13.5252 H           1 SU3       0.0237
    104 H51       -13.4971  -10.5946   14.8648 H           1 SU3       0.0237
    105 H52       -14.5020   -8.0822    9.5898 H           1 SU3       0.0553
    106 H53       -12.8729   -7.3697    9.6948 H           1 SU3       0.0553
@<TRIPOS>BOND
     1     1     3   2
     2     1     4   1
     3    21     1  am
     4     4     2   1
     5     2     7  am
     6     2    52   1
     7     4     5   1
     8     5     6   1
     9     6    52   1
    10     6    53   1
    11     7     8   2
    12     7     9   1
    13     9    10   1
    14     9    13   1
    15    10    11  am
    16    11    12   1
    17    11    14   2
    18    12    47   1
    19    13    20   1
    20    13    50   1
    21    13    51   1
    22    15    16   2
    23    15    17  am
    24    53    15   1
    25    17    26   1
    26    17    29   1
    27    18    19   1
    28    24    18   1
    29    22    21   1
    30    22    23   1
    31    22    24   1
    32    22    25   1
    33    23    35  am
    34    23    36   2
    35    24    25   1
    36    26    27   2
    37    27    28  ar
    38    27    30  ar
    39    28    29   2
    40    28    33  ar
    41    30    31  ar
    42    31    32  ar
    43    32    33  ar
    44    33    34   1
    45    34    43   1
    46    35    37  am
    47    37    38   1
    48    37    39   2
    49    37    40   2
    50    38    41   1
    51    38    42   1
    52    41    42   1
    53    43    44   1
    54    44    45   1
    55    45    46   1
    56    46    47   1
    57    46    48   1
    58    46    49   1
    59     4    54   1
    60     5    55   1
    61     5    56   1
    62     6    57   1
    63     9    58   1
    64    10    59   1
    65    18    60   1
    66    18    61   1
    67    19    62   1
    68    19    63   1
    69    19    64   1
    70    20    65   1
    71    20    66   1
    72    20    67   1
    73    21    68   1
    74    24    69   1
    75    25    70   1
    76    25    71   1
    77    26    72   1
    78    29    73   1
    79    30    74   1
    80    31    75   1
    81    32    76   1
    82    34    77   1
    83    34    78   1
    84    35    79   1
    85    38    80   1
    86    41    81   1
    87    41    82   1
    88    42    83   1
    89    42    84   1
    90    43    85   1
    91    43    86   1
    92    44    87   1
    93    44    88   1
    94    45    89   1
    95    45    90   1
    96    47    91   1
    97    47    92   1
    98    48    93   1
    99    48    94   1
   100    48    95   1
   101    49    96   1
   102    49    97   1
   103    49    98   1
   104    50    99   1
   105    50   100   1
   106    50   101   1
   107    51   102   1
   108    51   103   1
   109    51   104   1
   110    52   105   1
   111    52   106   1
@<TRIPOS>SUBSTRUCTURE
     1  SU3      1

