@<TRIPOS>MOLECULE
3su5_ligand_014
   106   111
SMALL
GAST_HUCK
****
This file was generated by PARSER (from files_GN.cpp)

@<TRIPOS>ATOM
      1 C         -13.6357   -7.7470   12.9882 C.2         1 SU3       0.2013
      2 N         -15.2672   -9.6850   13.0294 N.am        1 SU3      -0.2469
      3 O         -12.4930   -7.3677   13.2246 O.2         1 SU3      -0.3947
      4 CA        -13.8948   -9.1929   13.0220 C.3         1 SU3       0.1363
      5 CB        -13.2312   -9.8659   11.7876 C.3         1 SU3       0.0206
      6 CG        -14.0782  -11.1165   11.5253 C.3         1 SU3       0.1158
      7 CAF       -16.1942   -9.3223   13.9387 C.2         1 SU3       0.2070
      8 OAG       -15.8315   -8.5979   14.8627 O.2         1 SU3      -0.3942
      9 CAH       -17.6082   -9.7466   13.9750 C.3         1 SU3       0.1378
     10 NAI       -17.8748  -10.3087   15.2791 N.am        1 SU3      -0.2407
     11 CAJ       -18.1490  -11.6080   15.5446 C.2         1 SU3       0.3218
     12 OAK       -18.3712  -11.9484   16.8397 O.3         1 SU3      -0.2633
     13 CAL       -18.6500   -8.6310   13.5693 C.3         1 SU3       0.0025
     14 OAM       -18.2103  -12.5397   14.5641 O.2         1 SU3      -0.3774
     15 CAO       -12.5016  -12.9869   12.0980 C.2         1 SU3       0.4317
     16 OAP       -11.6844  -12.6839   11.0554 O.2         1 SU3      -0.3166
     17 NAQ       -12.1888  -14.0057   12.9361 N.am        1 SU3      -0.2080
     18 CAR       -15.8023   -3.5376   14.3052 C.3         1 SU3      -0.0516
     19 CAS       -15.3362   -2.7251   15.5352 C.3         1 SU3      -0.0651
     20 CAT       -18.7864   -8.5554   12.0056 C.3         1 SU3      -0.0558
     21 NAV       -14.6062   -6.8678   12.7614 N.am        1 SU3      -0.2737
     22 CAX       -14.4873   -5.4361   12.7963 C.3         1 SU3       0.1374
     23 CAY       -14.9768   -4.7419   11.6260 C.2         1 SU3       0.2444
     24 CAZ       -15.0346   -4.8757   14.1440 C.3         1 SU3      -0.0066
     25 CBA       -13.5425   -4.7344   13.8097 C.3         1 SU3      -0.0152
     26 CBB       -11.0914  -14.7912   12.8504 C.2         1 SU3       0.0383
     27 CBC       -11.0854  -15.6748   13.9213 C.ar        1 SU3      -0.0374
     28 CBD       -12.2458  -15.4438   14.6572 C.ar        1 SU3      -0.0293
     29 CBE       -12.9098  -14.4012   14.0134 C.2         1 SU3       0.0366
     30 CBF       -10.1544  -16.6505   14.3057 C.ar        1 SU3      -0.0689
     31 CBG       -10.4239  -17.4147   15.4576 C.ar        1 SU3      -0.0688
     32 CBH       -11.6137  -17.2137   16.1894 C.ar        1 SU3      -0.0606
     33 CBI       -12.5569  -16.2179   15.7999 C.ar        1 SU3      -0.0432
     34 CBJ       -13.8193  -16.0259   16.5555 C.3         1 SU3      -0.0194
     35 NBK       -14.2564   -3.7748   11.0645 N.am        1 SU3      -0.1552
     36 OBL       -16.0801   -5.0713   11.1928 O.2         1 SU3      -0.3404
     37 SBM       -14.8129   -2.7306    9.8621 S.o2        1 SU3       0.0645
     38 CBN       -15.0462   -1.0615   10.5104 C.3         1 SU3       0.1004
     39 OBO       -13.7254   -2.7517    8.6999 O.2         1 SU3      -0.1503
     40 OBP       -16.1288   -3.3090    9.1673 O.2         1 SU3      -0.1503
     41 CBQ       -14.6470    0.1397    9.6417 C.3         1 SU3      -0.0268
     42 CBR       -16.1287   -0.1838    9.8650 C.3         1 SU3      -0.0268
     43 CBS       -13.7817  -14.7748   17.4786 C.3         1 SU3      -0.0433
     44 CBT       -15.0629  -14.5707   18.3304 C.3         1 SU3      -0.0507
     45 CBU       -16.2983  -14.0384   17.5372 C.3         1 SU3      -0.0453
     46 CBV       -17.6421  -13.8335   18.3282 C.3         1 SU3      -0.0072
     47 CBW       -18.7246  -13.2456   17.3580 C.3         1 SU3       0.0824
     48 CBX       -18.1810  -15.2029   18.8726 C.3         1 SU3      -0.0574
     49 CBY       -17.4615  -12.8544   19.5327 C.3         1 SU3      -0.0574
     50 CBZ       -20.0782   -8.9778   14.1365 C.3         1 SU3      -0.0558
     51 CCA       -18.2830   -7.1912   14.0728 C.3         1 SU3      -0.0558
     52 CD1       -15.4767  -10.6753   12.0092 C.3         1 SU3       0.0677
     53 OD2       -13.6235  -12.2503   12.2945 O.3         1 SU3      -0.2338
     54 H1        -13.4128   -9.5956   13.9247 H           1 SU3       0.0803
     55 H2        -12.1838  -10.1149   11.9785 H           1 SU3       0.0342
     56 H3        -13.2823   -9.2249   10.8998 H           1 SU3       0.0342
     57 H4        -14.1040  -11.3829   10.4637 H           1 SU3       0.0673
     58 H5        -17.7625  -10.5286   13.2384 H           1 SU3       0.0805
     59 H6        -17.8396   -9.6965   16.0305 H           1 SU3       0.1899
     60 H7        -15.6865   -2.9005   13.4233 H           1 SU3       0.0265
     61 H8        -16.8630   -3.7680   14.4181 H           1 SU3       0.0265
     62 H9        -15.9396   -1.8205   15.6409 H           1 SU3       0.0230
     63 H10       -14.2872   -2.4312   15.4166 H           1 SU3       0.0230
     64 H11       -15.4299   -3.3180   16.4529 H           1 SU3       0.0230
     65 H12       -19.5086   -7.7938   11.7034 H           1 SU3       0.0237
     66 H13       -19.1204   -9.5156   11.6021 H           1 SU3       0.0237
     67 H14       -17.8223   -8.3123   11.5471 H           1 SU3       0.0237
     68 H15       -15.4914   -7.2206   12.5626 H           1 SU3       0.1839
     69 H16       -15.2163   -5.6176   14.9306 H           1 SU3       0.0312
     70 H17       -13.1999   -3.7254   13.5327 H           1 SU3       0.0279
     71 H18       -12.8956   -5.3644   14.4336 H           1 SU3       0.0279
     72 H19       -10.3666  -14.7481   12.1306 H           1 SU3       0.0373
     73 H20       -13.7942  -13.9937   14.3179 H           1 SU3       0.0361
     74 H21        -9.2936  -16.7980   13.7667 H           1 SU3       0.0557
     75 H22        -9.7468  -18.1197   15.7620 H           1 SU3       0.0599
     76 H23       -11.7834  -17.7897   17.0143 H           1 SU3       0.0557
     77 H24       -14.0261  -16.9032   17.1746 H           1 SU3       0.0426
     78 H25       -14.6431  -15.9456   15.8440 H           1 SU3       0.0426
     79 H26       -13.3851   -3.5767   11.4683 H           1 SU3       0.2148
     80 H27       -14.9344   -0.9215   11.5851 H           1 SU3       0.0559
     81 H28       -14.2871   -0.0533    8.6318 H           1 SU3       0.0285
     82 H29       -14.2911    1.0170   10.1752 H           1 SU3       0.0285
     83 H30       -16.6455    0.5076   10.5276 H           1 SU3       0.0285
     84 H31       -16.6470   -0.5647    8.9855 H           1 SU3       0.0285
     85 H32       -13.5967  -13.8762   16.8857 H           1 SU3       0.0287
     86 H33       -12.9364  -14.8909   18.1635 H           1 SU3       0.0287
     87 H34       -14.8252  -13.8467   19.1112 H           1 SU3       0.0267
     88 H35       -15.3108  -15.5134   18.8208 H           1 SU3       0.0267
     89 H36       -16.4914  -14.7207   16.7074 H           1 SU3       0.0271
     90 H37       -16.0012  -13.0814   17.0970 H           1 SU3       0.0271
     91 H38       -18.9077  -13.9549   16.5455 H           1 SU3       0.0617
     92 H39       -19.6711  -13.1199   17.8866 H           1 SU3       0.0617
     93 H40       -17.5125  -15.6252   19.6236 H           1 SU3       0.0236
     94 H41       -18.2829  -15.9259   18.0608 H           1 SU3       0.0236
     95 H42       -19.1607  -15.0766   19.3398 H           1 SU3       0.0236
     96 H43       -17.0147  -11.9149   19.1994 H           1 SU3       0.0236
     97 H44       -16.8143  -13.2823   20.3018 H           1 SU3       0.0236
     98 H45       -18.4208  -12.6288   20.0006 H           1 SU3       0.0236
     99 H46       -20.0839   -8.9289   15.2297 H           1 SU3       0.0237
    100 H47       -20.3760   -9.9905   13.8408 H           1 SU3       0.0237
    101 H48       -20.8385   -8.2843   13.7706 H           1 SU3       0.0237
    102 H49       -17.4014   -6.8072   13.5508 H           1 SU3       0.0237
    103 H50       -18.0614   -7.2060   15.1424 H           1 SU3       0.0237
    104 H51       -19.1010   -6.4845   13.9005 H           1 SU3       0.0237
    105 H52       -16.0475  -10.2415   11.1840 H           1 SU3       0.0553
    106 H53       -16.0014  -11.5617   12.3806 H           1 SU3       0.0553
@<TRIPOS>BOND
     1     1     3   2
     2     1     4   1
     3    21     1  am
     4     4     2   1
     5     2     7  am
     6     2    52   1
     7     4     5   1
     8     5     6   1
     9     6    52   1
    10     6    53   1
    11     7     8   2
    12     7     9   1
    13     9    10   1
    14     9    13   1
    15    10    11  am
    16    11    12   1
    17    11    14   2
    18    12    47   1
    19    13    20   1
    20    13    50   1
    21    13    51   1
    22    15    16   2
    23    15    17  am
    24    53    15   1
    25    17    26   1
    26    17    29   1
    27    18    19   1
    28    24    18   1
    29    22    21   1
    30    22    23   1
    31    22    24   1
    32    22    25   1
    33    23    35  am
    34    23    36   2
    35    24    25   1
    36    26    27   2
    37    27    28  ar
    38    27    30  ar
    39    28    29   2
    40    28    33  ar
    41    30    31  ar
    42    31    32  ar
    43    32    33  ar
    44    33    34   1
    45    34    43   1
    46    35    37  am
    47    37    38   1
    48    37    39   2
    49    37    40   2
    50    38    41   1
    51    38    42   1
    52    41    42   1
    53    43    44   1
    54    44    45   1
    55    45    46   1
    56    46    47   1
    57    46    48   1
    58    46    49   1
    59     4    54   1
    60     5    55   1
    61     5    56   1
    62     6    57   1
    63     9    58   1
    64    10    59   1
    65    18    60   1
    66    18    61   1
    67    19    62   1
    68    19    63   1
    69    19    64   1
    70    20    65   1
    71    20    66   1
    72    20    67   1
    73    21    68   1
    74    24    69   1
    75    25    70   1
    76    25    71   1
    77    26    72   1
    78    29    73   1
    79    30    74   1
    80    31    75   1
    81    32    76   1
    82    34    77   1
    83    34    78   1
    84    35    79   1
    85    38    80   1
    86    41    81   1
    87    41    82   1
    88    42    83   1
    89    42    84   1
    90    43    85   1
    91    43    86   1
    92    44    87   1
    93    44    88   1
    94    45    89   1
    95    45    90   1
    96    47    91   1
    97    47    92   1
    98    48    93   1
    99    48    94   1
   100    48    95   1
   101    49    96   1
   102    49    97   1
   103    49    98   1
   104    50    99   1
   105    50   100   1
   106    50   101   1
   107    51   102   1
   108    51   103   1
   109    51   104   1
   110    52   105   1
   111    52   106   1
@<TRIPOS>SUBSTRUCTURE
     1  SU3      1

