@<TRIPOS>MOLECULE
3su5_ligand_088
   106   111
SMALL
GAST_HUCK
****
This file was generated by PARSER (from files_GN.cpp)

@<TRIPOS>ATOM
      1 C         -18.4926  -11.3202   15.5783 C.2         1 SU3       0.2013
      2 N         -16.7446  -11.6876   13.9331 N.am        1 SU3      -0.2469
      3 O         -18.6646  -12.5241   15.7487 O.2         1 SU3      -0.3947
      4 CA        -17.8637  -10.8621   14.3407 C.3         1 SU3       0.1363
      5 CB        -18.8552  -10.8704   13.1513 C.3         1 SU3       0.0206
      6 CG        -18.3940  -12.0045   12.2185 C.3         1 SU3       0.1158
      7 CAF       -15.5330  -11.6680   14.5245 C.2         1 SU3       0.2070
      8 OAG       -15.3148  -10.7815   15.3402 O.2         1 SU3      -0.3942
      9 CAH       -14.4115  -12.5904   14.2577 C.3         1 SU3       0.1378
     10 NAI       -13.3494  -11.8470   13.6270 N.am        1 SU3      -0.2407
     11 CAJ       -12.8020  -12.0877   12.4091 C.2         1 SU3       0.3218
     12 OAK       -11.7671  -11.3021   12.0109 O.3         1 SU3      -0.2633
     13 CAL       -13.8961  -13.4112   15.5158 C.3         1 SU3       0.0025
     14 OAM       -13.2357  -13.0983   11.6178 O.2         1 SU3      -0.3774
     15 CAO       -19.0696  -11.0731    9.9588 C.2         1 SU3       0.4317
     16 OAP       -20.3938  -11.0906   10.2467 O.2         1 SU3      -0.3166
     17 NAQ       -18.6111  -10.5761    8.7826 N.am        1 SU3      -0.2080
     18 CAR       -19.1786  -12.6246   19.7050 C.3         1 SU3      -0.0516
     19 CAS       -18.1691  -13.7153   20.1191 C.3         1 SU3      -0.0651
     20 CAT       -13.2383  -12.5212   16.6252 C.3         1 SU3      -0.0558
     21 NAV       -18.9595  -10.4513   16.4763 N.am        1 SU3      -0.2737
     22 CAX       -19.5295  -10.7998   17.7494 C.3         1 SU3       0.1374
     23 CAY       -20.9824  -10.6965   17.9153 C.2         1 SU3       0.2444
     24 CAZ       -18.5868  -11.6083   18.6867 C.3         1 SU3      -0.0066
     25 CBA       -18.7600  -10.0952   18.8911 C.3         1 SU3      -0.0152
     26 CBB       -19.3587  -10.1042    7.7571 C.2         1 SU3       0.0383
     27 CBC       -18.5078   -9.6783    6.7426 C.ar        1 SU3      -0.0374
     28 CBD       -17.2029   -9.8823    7.1819 C.ar        1 SU3      -0.0293
     29 CBE       -17.3057  -10.4500    8.4479 C.2         1 SU3       0.0366
     30 CBF       -18.7668   -9.1353    5.4708 C.ar        1 SU3      -0.0689
     31 CBG       -17.6741   -8.8048    4.6461 C.ar        1 SU3      -0.0688
     32 CBH       -16.3499   -9.0011    5.0969 C.ar        1 SU3      -0.0606
     33 CBI       -16.0847   -9.5354    6.3836 C.ar        1 SU3      -0.0432
     34 CBJ       -14.6903   -9.7166    6.8755 C.3         1 SU3      -0.0194
     35 NBK       -21.7421  -10.2430   16.9305 N.am        1 SU3      -0.1552
     36 OBL       -21.5003  -11.0134   18.9787 O.2         1 SU3      -0.3404
     37 SBM       -23.4107   -9.9769   16.9696 S.o2        1 SU3       0.0645
     38 CBN       -24.3086  -10.6335   18.4025 C.3         1 SU3       0.1004
     39 OBO       -23.6394   -8.4023   16.9664 O.2         1 SU3      -0.1503
     40 OBP       -24.0368  -10.5570   15.6256 O.2         1 SU3      -0.1503
     41 CBQ       -25.7775  -11.0620   18.2456 C.3         1 SU3      -0.0268
     42 CBR       -24.6739  -12.1242   18.3841 C.3         1 SU3      -0.0268
     43 CBS       -14.2945   -8.6527    7.9398 C.3         1 SU3      -0.0433
     44 CBT       -12.8224   -8.7381    8.4327 C.3         1 SU3      -0.0507
     45 CBU       -12.5156   -9.9470    9.3677 C.3         1 SU3      -0.0453
     46 CBV       -11.0492  -10.0865    9.9286 C.3         1 SU3      -0.0072
     47 CBW       -10.9735  -11.3853   10.8092 C.3         1 SU3       0.0824
     48 CBX       -10.0168  -10.2312    8.7608 C.3         1 SU3      -0.0574
     49 CBY       -10.6488   -8.8521   10.8019 C.3         1 SU3      -0.0574
     50 CBZ       -15.0829  -14.2128   16.1557 C.3         1 SU3      -0.0558
     51 CCA       -12.8181  -14.4480   15.0491 C.3         1 SU3      -0.0558
     52 CD1       -17.0552  -12.5023   12.7991 C.3         1 SU3       0.0677
     53 OD2       -18.1799  -11.5299   10.8810 O.3         1 SU3      -0.2338
     54 H1        -17.5188   -9.8290   14.4664 H           1 SU3       0.0803
     55 H2        -18.8001   -9.9101   12.6337 H           1 SU3       0.0342
     56 H3        -19.8961  -11.0193   13.4533 H           1 SU3       0.0342
     57 H4        -19.1231  -12.8208   12.2122 H           1 SU3       0.0673
     58 H5        -14.7589  -13.3507   13.5580 H           1 SU3       0.0805
     59 H6        -12.9656  -11.1163   14.1381 H           1 SU3       0.1899
     60 H7        -19.5177  -12.1092   20.6076 H           1 SU3       0.0265
     61 H8        -20.0387  -13.1286   19.2499 H           1 SU3       0.0265
     62 H9        -18.6382  -14.3987   20.8324 H           1 SU3       0.0230
     63 H10       -17.2922  -13.2650   20.5871 H           1 SU3       0.0230
     64 H11       -17.8579  -14.2862   19.2404 H           1 SU3       0.0230
     65 H12       -12.8252  -13.1399   17.4244 H           1 SU3       0.0237
     66 H13       -13.9609  -11.8518   17.0873 H           1 SU3       0.0237
     67 H14       -12.4272  -11.9185   16.2132 H           1 SU3       0.0237
     68 H15       -18.8942   -9.5032   16.2663 H           1 SU3       0.1839
     69 H16       -17.6280  -11.8723   18.2340 H           1 SU3       0.0312
     70 H17       -19.3029   -9.8095   19.7927 H           1 SU3       0.0279
     71 H18       -17.8950   -9.4960   18.6139 H           1 SU3       0.0279
     72 H19       -20.3789  -10.0680    7.7217 H           1 SU3       0.0373
     73 H20       -16.5099  -10.7216    9.0318 H           1 SU3       0.0361
     74 H21       -19.7275   -8.9916    5.1495 H           1 SU3       0.0557
     75 H22       -17.8416   -8.4146    3.7160 H           1 SU3       0.0599
     76 H23       -15.5796   -8.7403    4.4802 H           1 SU3       0.0557
     77 H24       -13.9865   -9.6478    6.0407 H           1 SU3       0.0426
     78 H25       -14.5931  -10.7231    7.2895 H           1 SU3       0.0426
     79 H26       -21.2989  -10.0087   16.1002 H           1 SU3       0.2148
     80 H27       -24.0605  -10.2370   19.3908 H           1 SU3       0.0559
     81 H28       -26.2189  -10.9641   17.2491 H           1 SU3       0.0285
     82 H29       -26.4058  -10.9171   19.1306 H           1 SU3       0.0285
     83 H30       -24.6432  -12.6353   19.3472 H           1 SU3       0.0285
     84 H31       -24.4640  -12.6835   17.4715 H           1 SU3       0.0285
     85 H32       -14.9612   -8.7195    8.8028 H           1 SU3       0.0287
     86 H33       -14.4395   -7.6636    7.4942 H           1 SU3       0.0287
     87 H34       -12.6115   -7.8156    8.9759 H           1 SU3       0.0267
     88 H35       -12.1690   -8.7650    7.5593 H           1 SU3       0.0267
     89 H36       -12.7573  -10.8613    8.8198 H           1 SU3       0.0271
     90 H37       -13.2068   -9.8904   10.2138 H           1 SU3       0.0271
     91 H38       -11.2611  -12.2566   10.2109 H           1 SU3       0.0617
     92 H39        -9.9423  -11.5542   11.1292 H           1 SU3       0.0617
     93 H40        -9.9596   -9.3177    8.1681 H           1 SU3       0.0236
     94 H41       -10.2964  -11.0529    8.0982 H           1 SU3       0.0236
     95 H42        -9.0148  -10.4317    9.1474 H           1 SU3       0.0236
     96 H43       -11.3758   -8.6868   11.6000 H           1 SU3       0.0236
     97 H44       -10.5942   -7.9444   10.1995 H           1 SU3       0.0236
     98 H45        -9.6683   -9.0014   11.2595 H           1 SU3       0.0236
     99 H46       -15.5556  -14.8620   15.4141 H           1 SU3       0.0237
    100 H47       -15.8472  -13.5369   16.5482 H           1 SU3       0.0237
    101 H48       -14.7387  -14.8399   16.9828 H           1 SU3       0.0237
    102 H49       -11.9356  -13.9370   14.6606 H           1 SU3       0.0237
    103 H50       -13.2118  -15.0941   14.2615 H           1 SU3       0.0237
    104 H51       -12.4978  -15.0848   15.8762 H           1 SU3       0.0237
    105 H52       -17.1384  -13.5501   13.1020 H           1 SU3       0.0553
    106 H53       -16.2731  -12.4233   12.0375 H           1 SU3       0.0553
@<TRIPOS>BOND
     1     1     3   2
     2     1     4   1
     3    21     1  am
     4     4     2   1
     5     2     7  am
     6     2    52   1
     7     4     5   1
     8     5     6   1
     9     6    52   1
    10     6    53   1
    11     7     8   2
    12     7     9   1
    13     9    10   1
    14     9    13   1
    15    10    11  am
    16    11    12   1
    17    11    14   2
    18    12    47   1
    19    13    20   1
    20    13    50   1
    21    13    51   1
    22    15    16   2
    23    15    17  am
    24    53    15   1
    25    17    26   1
    26    17    29   1
    27    18    19   1
    28    24    18   1
    29    22    21   1
    30    22    23   1
    31    22    24   1
    32    22    25   1
    33    23    35  am
    34    23    36   2
    35    24    25   1
    36    26    27   2
    37    27    28  ar
    38    27    30  ar
    39    28    29   2
    40    28    33  ar
    41    30    31  ar
    42    31    32  ar
    43    32    33  ar
    44    33    34   1
    45    34    43   1
    46    35    37  am
    47    37    38   1
    48    37    39   2
    49    37    40   2
    50    38    41   1
    51    38    42   1
    52    41    42   1
    53    43    44   1
    54    44    45   1
    55    45    46   1
    56    46    47   1
    57    46    48   1
    58    46    49   1
    59     4    54   1
    60     5    55   1
    61     5    56   1
    62     6    57   1
    63     9    58   1
    64    10    59   1
    65    18    60   1
    66    18    61   1
    67    19    62   1
    68    19    63   1
    69    19    64   1
    70    20    65   1
    71    20    66   1
    72    20    67   1
    73    21    68   1
    74    24    69   1
    75    25    70   1
    76    25    71   1
    77    26    72   1
    78    29    73   1
    79    30    74   1
    80    31    75   1
    81    32    76   1
    82    34    77   1
    83    34    78   1
    84    35    79   1
    85    38    80   1
    86    41    81   1
    87    41    82   1
    88    42    83   1
    89    42    84   1
    90    43    85   1
    91    43    86   1
    92    44    87   1
    93    44    88   1
    94    45    89   1
    95    45    90   1
    96    47    91   1
    97    47    92   1
    98    48    93   1
    99    48    94   1
   100    48    95   1
   101    49    96   1
   102    49    97   1
   103    49    98   1
   104    50    99   1
   105    50   100   1
   106    50   101   1
   107    51   102   1
   108    51   103   1
   109    51   104   1
   110    52   105   1
   111    52   106   1
@<TRIPOS>SUBSTRUCTURE
     1  SU3      1

