@<TRIPOS>MOLECULE
3su5_ligand_073
   106   111
SMALL
GAST_HUCK
****
This file was generated by PARSER (from files_GN.cpp)

@<TRIPOS>ATOM
      1 C         -11.1652   -6.1026    9.9888 C.2         1 SU3       0.2013
      2 N         -13.3351   -5.7776   10.9676 N.am        1 SU3      -0.2469
      3 O         -10.5581   -5.5007    9.1189 O.2         1 SU3      -0.3947
      4 CA        -12.6088   -6.3636    9.8652 C.3         1 SU3       0.1363
      5 CB        -13.3104   -5.7602    8.6252 C.3         1 SU3       0.0206
      6 CG        -13.7234   -4.3534    9.0826 C.3         1 SU3       0.1158
      7 CAF       -13.5247   -6.3755   12.1662 C.2         1 SU3       0.2070
      8 OAG       -13.1619   -7.5431   12.2868 O.2         1 SU3      -0.3942
      9 CAH       -14.2290   -5.8010   13.3170 C.3         1 SU3       0.1378
     10 NAI       -15.5087   -6.4559   13.3687 N.am        1 SU3      -0.2407
     11 CAJ       -16.7285   -5.8740   13.3136 C.2         1 SU3       0.3218
     12 OAK       -17.8031   -6.6977   13.3920 O.3         1 SU3      -0.2633
     13 CAL       -13.4792   -5.8406   14.7167 C.3         1 SU3       0.0025
     14 OAM       -16.8839   -4.5296   13.2343 O.2         1 SU3      -0.3774
     15 CAO       -15.1779   -3.4703    7.2144 C.2         1 SU3       0.4317
     16 OAP       -14.1398   -3.2330    6.3786 O.2         1 SU3      -0.3166
     17 NAQ       -16.4615   -3.3183    6.8091 N.am        1 SU3      -0.2080
     18 CAR        -7.5709   -6.7521   13.5997 C.3         1 SU3      -0.0516
     19 CAS        -7.9826   -5.6636   14.6138 C.3         1 SU3      -0.0651
     20 CAT       -13.3110   -7.2868   15.2978 C.3         1 SU3      -0.0558
     21 NAV       -10.5255   -6.5892   11.0387 N.am        1 SU3      -0.2737
     22 CAX        -9.1218   -6.4883   11.3295 C.3         1 SU3       0.1374
     23 CAY        -8.4341   -5.2592   11.0012 C.2         1 SU3       0.2444
     24 CAZ        -8.7604   -7.1546   12.6918 C.3         1 SU3      -0.0066
     25 CBA        -8.3793   -7.8484   11.3731 C.3         1 SU3      -0.0152
     26 CBB       -16.8834   -2.8808    5.6016 C.2         1 SU3       0.0383
     27 CBC       -18.2717   -2.9795    5.5529 C.ar        1 SU3      -0.0374
     28 CBD       -18.6944   -3.4963    6.7722 C.ar        1 SU3      -0.0293
     29 CBE       -17.5469   -3.6604    7.5430 C.2         1 SU3       0.0366
     30 CBF       -19.1899   -2.6899    4.5299 C.ar        1 SU3      -0.0689
     31 CBG       -20.5565   -2.9441    4.7667 C.ar        1 SU3      -0.0688
     32 CBH       -20.9826   -3.4891    5.9975 C.ar        1 SU3      -0.0606
     33 CBI       -20.0559   -3.7893    7.0285 C.ar        1 SU3      -0.0432
     34 CBJ       -20.4852   -4.4302    8.3016 C.3         1 SU3      -0.0194
     35 NBK        -7.4719   -5.2749   10.0875 N.am        1 SU3      -0.1552
     36 OBL        -8.8509   -4.2198   11.4898 O.2         1 SU3      -0.3404
     37 SBM        -6.6769   -3.9230    9.4668 S.o2        1 SU3       0.0645
     38 CBN        -6.4191   -2.5309   10.5944 C.3         1 SU3       0.1004
     39 OBO        -5.2279   -4.4578    9.0927 O.2         1 SU3      -0.1503
     40 OBP        -7.3737   -3.5004    8.1039 O.2         1 SU3      -0.1503
     41 CBQ        -5.1744   -1.6407   10.3946 C.3         1 SU3      -0.0268
     42 CBR        -6.5665   -1.1095   10.0128 C.3         1 SU3      -0.0268
     43 CBS       -20.0670   -5.9285    8.3732 C.3         1 SU3      -0.0433
     44 CBT       -20.4898   -6.6652    9.6740 C.3         1 SU3      -0.0507
     45 CBU       -19.6824   -6.2643   10.9463 C.3         1 SU3      -0.0453
     46 CBV       -20.0486   -6.9935   12.2942 C.3         1 SU3      -0.0072
     47 CBW       -19.1994   -6.3689   13.4596 C.3         1 SU3       0.0824
     48 CBX       -21.5636   -6.7912   12.6379 C.3         1 SU3      -0.0574
     49 CBY       -19.7523   -8.5276   12.2130 C.3         1 SU3      -0.0574
     50 CBZ       -12.0635   -5.1834   14.5875 C.3         1 SU3      -0.0558
     51 CCA       -14.2946   -5.0111   15.7629 C.3         1 SU3      -0.0558
     52 CD1       -13.9303   -4.5242   10.6032 C.3         1 SU3       0.0677
     53 OD2       -14.9456   -3.9428    8.4669 O.3         1 SU3      -0.2338
     54 H1        -12.7551   -7.4499    9.8158 H           1 SU3       0.0803
     55 H2        -14.2082   -6.3483    8.3944 H           1 SU3       0.0342
     56 H3        -12.6827   -5.7355    7.7320 H           1 SU3       0.0342
     57 H4        -12.9239   -3.6325    8.8872 H           1 SU3       0.0673
     58 H5        -14.3903   -4.7372   13.1208 H           1 SU3       0.0805
     59 H6        -15.4956   -7.4217   13.4541 H           1 SU3       0.1899
     60 H7         -7.2466   -7.6385   14.1494 H           1 SU3       0.0265
     61 H8         -6.7201   -6.3884   13.0126 H           1 SU3       0.0265
     62 H9         -7.2107   -5.5481   15.3745 H           1 SU3       0.0230
     63 H10        -8.9132   -5.9334   15.1110 H           1 SU3       0.0230
     64 H11        -8.1179   -4.7109   14.0975 H           1 SU3       0.0230
     65 H12       -12.8923   -7.2544   16.3070 H           1 SU3       0.0237
     66 H13       -12.6391   -7.8896   14.6863 H           1 SU3       0.0237
     67 H14       -14.2727   -7.7994   15.3592 H           1 SU3       0.0237
     68 H15       -11.0538   -7.0991   11.6720 H           1 SU3       0.1839
     69 H16        -9.5790   -7.6698   13.1949 H           1 SU3       0.0312
     70 H17        -7.3182   -7.8462   11.1220 H           1 SU3       0.0279
     71 H18        -8.9718   -8.7283   11.1153 H           1 SU3       0.0279
     72 H19       -16.2898   -2.5618    4.8321 H           1 SU3       0.0373
     73 H20       -17.5328   -4.0306    8.4956 H           1 SU3       0.0361
     74 H21       -18.8738   -2.3149    3.6344 H           1 SU3       0.0557
     75 H22       -21.2404   -2.7453    4.0339 H           1 SU3       0.0599
     76 H23       -21.9777   -3.6844    6.1293 H           1 SU3       0.0557
     77 H24       -21.5717   -4.3720    8.4060 H           1 SU3       0.0426
     78 H25       -20.0544   -3.8720    9.1344 H           1 SU3       0.0426
     79 H26        -7.2192   -6.1408    9.7206 H           1 SU3       0.2148
     80 H27        -6.7181   -2.6393   11.6370 H           1 SU3       0.0559
     81 H28        -4.5271   -1.8689    9.5507 H           1 SU3       0.0285
     82 H29        -4.7475   -1.2094   11.2998 H           1 SU3       0.0285
     83 H30        -6.9720   -0.3542   10.6861 H           1 SU3       0.0285
     84 H31        -6.7379   -1.0181    8.9410 H           1 SU3       0.0285
     85 H32       -18.9859   -6.0296    8.2538 H           1 SU3       0.0287
     86 H33       -20.5336   -6.4461    7.5294 H           1 SU3       0.0287
     87 H34       -20.3560   -7.7349    9.4997 H           1 SU3       0.0267
     88 H35       -21.5546   -6.4870    9.8332 H           1 SU3       0.0267
     89 H36       -19.8117   -5.1899   11.0959 H           1 SU3       0.0271
     90 H37       -18.6215   -6.4301   10.7371 H           1 SU3       0.0271
     91 H38       -19.3433   -5.2850   13.4897 H           1 SU3       0.0617
     92 H39       -19.5468   -6.7599   14.4197 H           1 SU3       0.0617
     93 H40       -22.2049   -7.3284   11.9380 H           1 SU3       0.0236
     94 H41       -21.8278   -5.7331   12.5959 H           1 SU3       0.0236
     95 H42       -21.7932   -7.1616   13.6393 H           1 SU3       0.0236
     96 H43       -18.7226   -8.7094   11.8995 H           1 SU3       0.0236
     97 H44       -20.4140   -9.0215   11.4999 H           1 SU3       0.0236
     98 H45       -19.9014   -9.0020   13.1857 H           1 SU3       0.0236
     99 H46       -12.1420   -4.1656   14.1987 H           1 SU3       0.0237
    100 H47       -11.4251   -5.7547   13.9115 H           1 SU3       0.0237
    101 H48       -11.5630   -5.1339   15.5576 H           1 SU3       0.0237
    102 H49       -15.2803   -5.4512   15.9256 H           1 SU3       0.0237
    103 H50       -14.4341   -3.9812   15.4250 H           1 SU3       0.0237
    104 H51       -13.7830   -4.9767   16.7288 H           1 SU3       0.0237
    105 H52       -13.4568   -3.6974   11.1411 H           1 SU3       0.0553
    106 H53       -15.0018   -4.5435   10.8276 H           1 SU3       0.0553
@<TRIPOS>BOND
     1     1     3   2
     2     1     4   1
     3    21     1  am
     4     4     2   1
     5     2     7  am
     6     2    52   1
     7     4     5   1
     8     5     6   1
     9     6    52   1
    10     6    53   1
    11     7     8   2
    12     7     9   1
    13     9    10   1
    14     9    13   1
    15    10    11  am
    16    11    12   1
    17    11    14   2
    18    12    47   1
    19    13    20   1
    20    13    50   1
    21    13    51   1
    22    15    16   2
    23    15    17  am
    24    53    15   1
    25    17    26   1
    26    17    29   1
    27    18    19   1
    28    24    18   1
    29    22    21   1
    30    22    23   1
    31    22    24   1
    32    22    25   1
    33    23    35  am
    34    23    36   2
    35    24    25   1
    36    26    27   2
    37    27    28  ar
    38    27    30  ar
    39    28    29   2
    40    28    33  ar
    41    30    31  ar
    42    31    32  ar
    43    32    33  ar
    44    33    34   1
    45    34    43   1
    46    35    37  am
    47    37    38   1
    48    37    39   2
    49    37    40   2
    50    38    41   1
    51    38    42   1
    52    41    42   1
    53    43    44   1
    54    44    45   1
    55    45    46   1
    56    46    47   1
    57    46    48   1
    58    46    49   1
    59     4    54   1
    60     5    55   1
    61     5    56   1
    62     6    57   1
    63     9    58   1
    64    10    59   1
    65    18    60   1
    66    18    61   1
    67    19    62   1
    68    19    63   1
    69    19    64   1
    70    20    65   1
    71    20    66   1
    72    20    67   1
    73    21    68   1
    74    24    69   1
    75    25    70   1
    76    25    71   1
    77    26    72   1
    78    29    73   1
    79    30    74   1
    80    31    75   1
    81    32    76   1
    82    34    77   1
    83    34    78   1
    84    35    79   1
    85    38    80   1
    86    41    81   1
    87    41    82   1
    88    42    83   1
    89    42    84   1
    90    43    85   1
    91    43    86   1
    92    44    87   1
    93    44    88   1
    94    45    89   1
    95    45    90   1
    96    47    91   1
    97    47    92   1
    98    48    93   1
    99    48    94   1
   100    48    95   1
   101    49    96   1
   102    49    97   1
   103    49    98   1
   104    50    99   1
   105    50   100   1
   106    50   101   1
   107    51   102   1
   108    51   103   1
   109    51   104   1
   110    52   105   1
   111    52   106   1
@<TRIPOS>SUBSTRUCTURE
     1  SU3      1

