@<TRIPOS>MOLECULE
3su5_ligand_074
   106   111
SMALL
GAST_HUCK
****
This file was generated by PARSER (from files_GN.cpp)

@<TRIPOS>ATOM
      1 C         -15.6521  -12.3583   15.4904 C.2         1 SU3       0.2013
      2 N         -17.0539  -13.7421   16.9144 N.am        1 SU3      -0.2469
      3 O         -16.6914  -11.8883   15.0366 O.2         1 SU3      -0.3947
      4 CA        -15.7031  -13.3234   16.5957 C.3         1 SU3       0.1363
      5 CB        -14.9700  -14.6504   16.2824 C.3         1 SU3       0.0206
      6 CG        -16.0701  -15.5941   15.7607 C.3         1 SU3       0.1158
      7 CAF       -17.9006  -13.0231   17.6725 C.2         1 SU3       0.2070
      8 OAG       -17.4551  -12.0650   18.2909 O.2         1 SU3      -0.3942
      9 CAH       -19.3326  -13.3111   17.8622 C.3         1 SU3       0.1378
     10 NAI       -19.4666  -13.9242   19.1571 N.am        1 SU3      -0.2407
     11 CAJ       -19.9584  -15.1476   19.4281 C.2         1 SU3       0.3218
     12 OAK       -20.0551  -15.4926   20.7402 O.3         1 SU3      -0.2633
     13 CAL       -20.3249  -12.0861   17.6734 C.3         1 SU3       0.0025
     14 OAM       -20.4162  -15.9781   18.4589 O.2         1 SU3      -0.3774
     15 CAO       -14.9900  -17.8875   15.8703 C.2         1 SU3       0.4317
     16 OAP       -14.1070  -17.6487   14.8711 O.2         1 SU3      -0.3166
     17 NAQ       -14.9769  -19.0533   16.5624 N.am        1 SU3      -0.2080
     18 CAR       -12.4366  -10.3607   12.0439 C.3         1 SU3      -0.0516
     19 CAS       -11.5394  -11.0289   10.9777 C.3         1 SU3      -0.0651
     20 CAT       -20.2708  -11.0500   18.8483 C.3         1 SU3      -0.0558
     21 NAV       -14.4819  -11.9644   15.0002 N.am        1 SU3      -0.2737
     22 CAX       -14.3014  -11.0446   13.9195 C.3         1 SU3       0.1374
     23 CAY       -14.5219   -9.6489   14.2207 C.2         1 SU3       0.2444
     24 CAZ       -13.2186  -11.4167   12.8684 C.3         1 SU3      -0.0066
     25 CBA       -14.7082  -11.5772   12.5218 C.3         1 SU3      -0.0152
     26 CBB       -14.1718  -20.1148   16.3362 C.2         1 SU3       0.0383
     27 CBC       -14.4363  -21.0829   17.2963 C.ar        1 SU3      -0.0374
     28 CBD       -15.4233  -20.5807   18.1412 C.ar        1 SU3      -0.0293
     29 CBE       -15.7558  -19.3290   17.6346 C.2         1 SU3       0.0366
     30 CBF       -13.8863  -22.3574   17.5024 C.ar        1 SU3      -0.0689
     31 CBG       -14.3453  -23.1192   18.5950 C.ar        1 SU3      -0.0688
     32 CBH       -15.3293  -22.6016   19.4669 C.ar        1 SU3      -0.0606
     33 CBI       -15.8855  -21.3129   19.2603 C.ar        1 SU3      -0.0432
     34 CBJ       -16.9130  -20.7536   20.1802 C.3         1 SU3      -0.0194
     35 NBK       -13.5343   -8.9528   14.7546 N.am        1 SU3      -0.1552
     36 OBL       -15.6572   -9.1923   14.0969 O.2         1 SU3      -0.3404
     37 SBM       -13.5514   -7.3295   15.2034 S.o2        1 SU3       0.0645
     38 CBN       -12.2985   -7.1022   16.4838 C.3         1 SU3       0.1004
     39 OBO       -13.1667   -6.4559   13.9379 O.2         1 SU3      -0.1503
     40 OBP       -14.9770   -6.8534   15.7345 O.2         1 SU3      -0.1503
     41 CBQ       -12.1477   -5.6892   17.0700 C.3         1 SU3      -0.0268
     42 CBR       -12.7347   -6.8200   17.9297 C.3         1 SU3      -0.0268
     43 CBS       -16.3621  -19.6049   21.0746 C.3         1 SU3      -0.0433
     44 CBT       -17.4136  -18.9808   22.0338 C.3         1 SU3      -0.0507
     45 CBU       -18.4898  -18.0950   21.3329 C.3         1 SU3      -0.0453
     46 CBV       -19.6075  -17.4564   22.2391 C.3         1 SU3      -0.0072
     47 CBW       -20.6199  -16.6730   21.3304 C.3         1 SU3       0.0824
     48 CBX       -20.4104  -18.5615   23.0020 C.3         1 SU3      -0.0574
     49 CBY       -18.9973  -16.4665   23.2815 C.3         1 SU3      -0.0574
     50 CBZ       -20.0325  -11.3335   16.3299 C.3         1 SU3      -0.0558
     51 CCA       -21.7947  -12.6265   17.6023 C.3         1 SU3      -0.0558
     52 CD1       -17.3726  -15.0270   16.3610 C.3         1 SU3       0.0677
     53 OD2       -15.8895  -16.9352   16.2254 O.3         1 SU3      -0.2338
     54 H1        -15.2187  -12.8779   17.4722 H           1 SU3       0.0803
     55 H2        -14.5540  -15.0533   17.2124 H           1 SU3       0.0342
     56 H3        -14.1516  -14.5436   15.5639 H           1 SU3       0.0342
     57 H4        -16.1150  -15.5652   14.6681 H           1 SU3       0.0673
     58 H5        -19.6273  -14.0332   17.1024 H           1 SU3       0.0805
     59 H6        -19.1960  -13.3860   19.9164 H           1 SU3       0.1899
     60 H7        -13.1133   -9.6532   11.5504 H           1 SU3       0.0265
     61 H8        -11.8086   -9.7838   12.7195 H           1 SU3       0.0265
     62 H9        -11.0218  -10.2644   10.3950 H           1 SU3       0.0230
     63 H10       -12.1404  -11.6422   10.3011 H           1 SU3       0.0230
     64 H11       -10.7939  -11.6623   11.4655 H           1 SU3       0.0230
     65 H12       -20.9531  -10.2185   18.6577 H           1 SU3       0.0237
     66 H13       -19.2762  -10.6253   18.9726 H           1 SU3       0.0237
     67 H14       -20.5644  -11.5132   19.7936 H           1 SU3       0.0237
     68 H15       -13.6749  -12.3255   15.4054 H           1 SU3       0.1839
     69 H16       -12.7095  -12.3626   13.0843 H           1 SU3       0.0312
     70 H17       -15.1259  -10.8522   11.8218 H           1 SU3       0.0279
     71 H18       -15.0433  -12.6143   12.4606 H           1 SU3       0.0279
     72 H19       -13.4759  -20.1992   15.5915 H           1 SU3       0.0373
     73 H20       -16.4643  -18.7082   18.0342 H           1 SU3       0.0361
     74 H21       -13.1696  -22.7182   16.8709 H           1 SU3       0.0557
     75 H22       -13.9621  -24.0526   18.7593 H           1 SU3       0.0599
     76 H23       -15.6338  -23.1749   20.2567 H           1 SU3       0.0557
     77 H24       -17.3032  -21.5390   20.8335 H           1 SU3       0.0426
     78 H25       -17.7494  -20.4000   19.5756 H           1 SU3       0.0426
     79 H26       -12.6858   -9.4127   14.8697 H           1 SU3       0.2148
     80 H27       -11.3685   -7.6623   16.3911 H           1 SU3       0.0559
     81 H28       -12.8678   -4.9333   16.7484 H           1 SU3       0.0285
     82 H29       -11.1342   -5.3865   17.3352 H           1 SU3       0.0285
     83 H30       -12.0694   -7.1798   18.7162 H           1 SU3       0.0285
     84 H31       -13.8045   -6.7371   18.1281 H           1 SU3       0.0285
     85 H32       -15.9359  -18.8096   20.4591 H           1 SU3       0.0287
     86 H33       -15.5492  -20.0126   21.6832 H           1 SU3       0.0287
     87 H34       -16.8739  -18.3655   22.7564 H           1 SU3       0.0267
     88 H35       -17.8924  -19.7927   22.5828 H           1 SU3       0.0267
     89 H36       -18.9837  -18.7029   20.5721 H           1 SU3       0.0271
     90 H37       -17.9648  -17.2930   20.8055 H           1 SU3       0.0271
     91 H38       -21.0279  -17.3383   20.5647 H           1 SU3       0.0617
     92 H39       -21.4647  -16.3289   21.9318 H           1 SU3       0.0617
     93 H40       -19.7816  -19.0826   23.7265 H           1 SU3       0.0236
     94 H41       -20.8142  -19.2993   22.3040 H           1 SU3       0.0236
     95 H42       -21.2459  -18.1257   23.5561 H           1 SU3       0.0236
     96 H43       -18.3885  -15.7068   22.7882 H           1 SU3       0.0236
     97 H44       -18.3683  -16.9878   24.0052 H           1 SU3       0.0236
     98 H45       -19.7929  -15.9604   23.8317 H           1 SU3       0.0236
     99 H46       -20.0132  -12.0360   15.4935 H           1 SU3       0.0237
    100 H47       -19.0683  -10.8212   16.3672 H           1 SU3       0.0237
    101 H48       -20.7979  -10.5811   16.1227 H           1 SU3       0.0237
    102 H49       -22.0351  -13.2109   18.4914 H           1 SU3       0.0237
    103 H50       -21.9336  -13.2672   16.7279 H           1 SU3       0.0237
    104 H51       -22.5173  -11.8077   17.5369 H           1 SU3       0.0237
    105 H52       -18.1328  -14.9348   15.5788 H           1 SU3       0.0553
    106 H53       -17.7474  -15.6827   17.1539 H           1 SU3       0.0553
@<TRIPOS>BOND
     1     1     3   2
     2     1     4   1
     3    21     1  am
     4     4     2   1
     5     2     7  am
     6     2    52   1
     7     4     5   1
     8     5     6   1
     9     6    52   1
    10     6    53   1
    11     7     8   2
    12     7     9   1
    13     9    10   1
    14     9    13   1
    15    10    11  am
    16    11    12   1
    17    11    14   2
    18    12    47   1
    19    13    20   1
    20    13    50   1
    21    13    51   1
    22    15    16   2
    23    15    17  am
    24    53    15   1
    25    17    26   1
    26    17    29   1
    27    18    19   1
    28    24    18   1
    29    22    21   1
    30    22    23   1
    31    22    24   1
    32    22    25   1
    33    23    35  am
    34    23    36   2
    35    24    25   1
    36    26    27   2
    37    27    28  ar
    38    27    30  ar
    39    28    29   2
    40    28    33  ar
    41    30    31  ar
    42    31    32  ar
    43    32    33  ar
    44    33    34   1
    45    34    43   1
    46    35    37  am
    47    37    38   1
    48    37    39   2
    49    37    40   2
    50    38    41   1
    51    38    42   1
    52    41    42   1
    53    43    44   1
    54    44    45   1
    55    45    46   1
    56    46    47   1
    57    46    48   1
    58    46    49   1
    59     4    54   1
    60     5    55   1
    61     5    56   1
    62     6    57   1
    63     9    58   1
    64    10    59   1
    65    18    60   1
    66    18    61   1
    67    19    62   1
    68    19    63   1
    69    19    64   1
    70    20    65   1
    71    20    66   1
    72    20    67   1
    73    21    68   1
    74    24    69   1
    75    25    70   1
    76    25    71   1
    77    26    72   1
    78    29    73   1
    79    30    74   1
    80    31    75   1
    81    32    76   1
    82    34    77   1
    83    34    78   1
    84    35    79   1
    85    38    80   1
    86    41    81   1
    87    41    82   1
    88    42    83   1
    89    42    84   1
    90    43    85   1
    91    43    86   1
    92    44    87   1
    93    44    88   1
    94    45    89   1
    95    45    90   1
    96    47    91   1
    97    47    92   1
    98    48    93   1
    99    48    94   1
   100    48    95   1
   101    49    96   1
   102    49    97   1
   103    49    98   1
   104    50    99   1
   105    50   100   1
   106    50   101   1
   107    51   102   1
   108    51   103   1
   109    51   104   1
   110    52   105   1
   111    52   106   1
@<TRIPOS>SUBSTRUCTURE
     1  SU3      1

