@<TRIPOS>MOLECULE
3su5_ligand_017
   106   111
SMALL
GAST_HUCK
****
This file was generated by PARSER (from files_GN.cpp)

@<TRIPOS>ATOM
      1 C         -13.2959  -10.2024   11.6456 C.2         1 SU3       0.2013
      2 N         -15.1769  -11.6494   12.3027 N.am        1 SU3      -0.2469
      3 O         -13.8882   -9.8782   10.6231 O.2         1 SU3      -0.3947
      4 CA        -13.7590  -11.3638   12.4087 C.3         1 SU3       0.1363
      5 CB        -13.0426  -12.6592   11.9511 C.3         1 SU3       0.0206
      6 CG        -14.1026  -13.7570   12.1387 C.3         1 SU3       0.1158
      7 CAF       -16.1402  -10.7538   12.5992 C.2         1 SU3       0.2070
      8 OAG       -15.7927   -9.7011   13.1279 O.2         1 SU3      -0.3942
      9 CAH       -17.5835  -10.8936   12.3259 C.3         1 SU3       0.1378
     10 NAI       -18.2852  -10.6158   13.5520 N.am        1 SU3      -0.2407
     11 CAJ       -19.0038  -11.4813   14.3013 C.2         1 SU3       0.3218
     12 OAK       -19.5176  -10.9905   15.4580 O.3         1 SU3      -0.2633
     13 CAL       -18.1117  -10.0029   11.1250 C.3         1 SU3       0.0025
     14 OAM       -19.1721  -12.7800   13.9578 O.2         1 SU3      -0.3774
     15 CAO       -13.2056  -15.1455   14.0436 C.2         1 SU3       0.4317
     16 OAP       -12.1362  -15.5655   13.3251 O.2         1 SU3      -0.3166
     17 NAQ       -13.3994  -15.5823   15.3148 N.am        1 SU3      -0.2080
     18 CAR        -9.1727   -7.3412   11.0414 C.3         1 SU3      -0.0516
     19 CAS        -9.1539   -6.3178    9.8782 C.3         1 SU3      -0.0651
     20 CAT       -17.4352  -10.4544    9.7867 C.3         1 SU3      -0.0558
     21 NAV       -12.2298   -9.5250   12.0538 N.am        1 SU3      -0.2737
     22 CAX       -11.7066   -8.3266   11.4577 C.3         1 SU3       0.1374
     23 CAY       -12.0835   -7.0718   12.0980 C.2         1 SU3       0.2444
     24 CAZ       -10.2415   -8.4753   10.9522 C.3         1 SU3      -0.0066
     25 CBA       -11.4047   -8.3798    9.9422 C.3         1 SU3      -0.0152
     26 CBB       -12.6048  -16.4419   15.9935 C.2         1 SU3       0.0383
     27 CBC       -13.1432  -16.6476   17.2573 C.ar        1 SU3      -0.0374
     28 CBD       -14.3004  -15.8773   17.3499 C.ar        1 SU3      -0.0293
     29 CBE       -14.4323  -15.2361   16.1175 C.2         1 SU3       0.0366
     30 CBF       -12.7147  -17.4512   18.3274 C.ar        1 SU3      -0.0689
     31 CBG       -13.4712  -17.4449   19.5156 C.ar        1 SU3      -0.0688
     32 CBH       -14.6432  -16.6646   19.6126 C.ar        1 SU3      -0.0606
     33 CBI       -15.0865  -15.8652   18.5262 C.ar        1 SU3      -0.0432
     34 CBJ       -16.3350  -15.0612   18.6274 C.3         1 SU3      -0.0194
     35 NBK       -11.9273   -6.9468   13.4083 N.am        1 SU3      -0.1552
     36 OBL       -12.6265   -6.1940   11.4336 O.2         1 SU3      -0.3404
     37 SBM       -12.4253   -5.6354   14.3474 S.o2        1 SU3       0.0645
     38 CBN       -11.4307   -5.5763   15.8523 C.3         1 SU3       0.1004
     39 OBO       -12.1319   -4.2626   13.5966 O.2         1 SU3      -0.1503
     40 OBP       -13.9776   -5.7386   14.6775 O.2         1 SU3      -0.1503
     41 CBQ       -11.8463   -4.5484   16.9150 C.3         1 SU3      -0.0268
     42 CBR       -12.0411   -6.0456   17.1827 C.3         1 SU3      -0.0268
     43 CBS       -16.0536  -13.5395   18.7675 C.3         1 SU3      -0.0433
     44 CBT       -17.3216  -12.6690   18.9833 C.3         1 SU3      -0.0507
     45 CBU       -18.2432  -12.5455   17.7334 C.3         1 SU3      -0.0453
     46 CBV       -19.5240  -11.6363   17.8587 C.3         1 SU3      -0.0072
     47 CBW       -20.2792  -11.6479   16.4819 C.3         1 SU3       0.0824
     48 CBX       -20.4911  -12.1938   18.9543 C.3         1 SU3      -0.0574
     49 CBY       -19.1494  -10.1606   18.2218 C.3         1 SU3      -0.0574
     50 CBZ       -19.6562  -10.2020   10.9540 C.3         1 SU3      -0.0558
     51 CCA       -17.8447   -8.4724   11.3247 C.3         1 SU3      -0.0558
     52 CD1       -15.4225  -13.0025   11.8965 C.3         1 SU3       0.0677
     53 OD2       -14.1074  -14.3033   13.4683 O.3         1 SU3      -0.2338
     54 H1        -13.5422  -11.2040   13.4705 H           1 SU3       0.0803
     55 H2        -12.1414  -12.8508   12.5402 H           1 SU3       0.0342
     56 H3        -12.7631  -12.6213   10.8916 H           1 SU3       0.0342
     57 H4        -13.9851  -14.5672   11.4120 H           1 SU3       0.0673
     58 H5        -17.7971  -11.9221   12.0393 H           1 SU3       0.0805
     59 H6        -18.2121   -9.7115   13.8967 H           1 SU3       0.1899
     60 H7         -9.2773   -6.8063   11.9901 H           1 SU3       0.0265
     61 H8         -8.1895   -7.8251   11.0619 H           1 SU3       0.0265
     62 H9         -8.2806   -5.6642    9.9699 H           1 SU3       0.0230
     63 H10       -10.0578   -5.7035    9.8940 H           1 SU3       0.0230
     64 H11        -9.0961   -6.8480    8.9248 H           1 SU3       0.0230
     65 H12       -17.7853   -9.8523    8.9445 H           1 SU3       0.0237
     66 H13       -17.6599  -11.5013    9.5706 H           1 SU3       0.0237
     67 H14       -16.3524  -10.3481    9.8397 H           1 SU3       0.0237
     68 H15       -11.7963   -9.8317   12.8659 H           1 SU3       0.1839
     69 H16        -9.8400   -9.4937   11.0201 H           1 SU3       0.0312
     70 H17       -11.5785   -7.4433    9.4083 H           1 SU3       0.0279
     71 H18       -11.6270   -9.3227    9.4288 H           1 SU3       0.0279
     72 H19       -11.7484  -16.8807   15.6462 H           1 SU3       0.0373
     73 H20       -15.1963  -14.6046   15.8680 H           1 SU3       0.0361
     74 H21       -11.8766  -18.0284   18.2447 H           1 SU3       0.0557
     75 H22       -13.1692  -18.0102   20.3119 H           1 SU3       0.0599
     76 H23       -15.1729  -16.6836   20.4871 H           1 SU3       0.0557
     77 H24       -16.9209  -15.3828   19.4928 H           1 SU3       0.0426
     78 H25       -16.9433  -15.2560   17.7424 H           1 SU3       0.0426
     79 H26       -11.5293   -7.6979   13.8817 H           1 SU3       0.2148
     80 H27       -10.3528   -5.6984   15.7540 H           1 SU3       0.0559
     81 H28       -12.7578   -3.9782   16.7286 H           1 SU3       0.0285
     82 H29       -11.0313   -4.0821   17.4722 H           1 SU3       0.0285
     83 H30       -11.3476   -6.4731   17.9094 H           1 SU3       0.0285
     84 H31       -13.0752   -6.3919   17.1690 H           1 SU3       0.0285
     85 H32       -15.5168  -13.1720   17.8901 H           1 SU3       0.0287
     86 H33       -15.4008  -13.3932   19.6327 H           1 SU3       0.0287
     87 H34       -16.9817  -11.6717   19.2656 H           1 SU3       0.0267
     88 H35       -17.8827  -13.0776   19.8256 H           1 SU3       0.0267
     89 H36       -18.5679  -13.5505   17.4541 H           1 SU3       0.0271
     90 H37       -17.6265  -12.1720   16.9112 H           1 SU3       0.0271
     91 H38       -20.5178  -12.6750   16.1910 H           1 SU3       0.0617
     92 H39       -21.2265  -11.1090   16.5660 H           1 SU3       0.0617
     93 H40       -20.0330  -12.1502   19.9437 H           1 SU3       0.0236
     94 H41       -20.7559  -13.2328   18.7467 H           1 SU3       0.0236
     95 H42       -21.4136  -11.6097   18.9965 H           1 SU3       0.0236
     96 H43       -18.3856   -9.7749   17.5431 H           1 SU3       0.0236
     97 H44       -18.7629  -10.0883   19.2399 H           1 SU3       0.0236
     98 H45       -20.0247   -9.5104   18.1549 H           1 SU3       0.0236
     99 H46       -20.1978   -9.8372   11.8290 H           1 SU3       0.0237
    100 H47       -19.9007  -11.2583   10.8185 H           1 SU3       0.0237
    101 H48       -20.0287   -9.6567   10.0825 H           1 SU3       0.0237
    102 H49       -16.7772   -8.2494   11.2977 H           1 SU3       0.0237
    103 H50       -18.2447   -8.1293   12.2806 H           1 SU3       0.0237
    104 H51       -18.3163   -7.8871   10.5319 H           1 SU3       0.0237
    105 H52       -15.6968  -13.0276   10.8381 H           1 SU3       0.0553
    106 H53       -16.2125  -13.4760   12.4855 H           1 SU3       0.0553
@<TRIPOS>BOND
     1     1     3   2
     2     1     4   1
     3    21     1  am
     4     4     2   1
     5     2     7  am
     6     2    52   1
     7     4     5   1
     8     5     6   1
     9     6    52   1
    10     6    53   1
    11     7     8   2
    12     7     9   1
    13     9    10   1
    14     9    13   1
    15    10    11  am
    16    11    12   1
    17    11    14   2
    18    12    47   1
    19    13    20   1
    20    13    50   1
    21    13    51   1
    22    15    16   2
    23    15    17  am
    24    53    15   1
    25    17    26   1
    26    17    29   1
    27    18    19   1
    28    24    18   1
    29    22    21   1
    30    22    23   1
    31    22    24   1
    32    22    25   1
    33    23    35  am
    34    23    36   2
    35    24    25   1
    36    26    27   2
    37    27    28  ar
    38    27    30  ar
    39    28    29   2
    40    28    33  ar
    41    30    31  ar
    42    31    32  ar
    43    32    33  ar
    44    33    34   1
    45    34    43   1
    46    35    37  am
    47    37    38   1
    48    37    39   2
    49    37    40   2
    50    38    41   1
    51    38    42   1
    52    41    42   1
    53    43    44   1
    54    44    45   1
    55    45    46   1
    56    46    47   1
    57    46    48   1
    58    46    49   1
    59     4    54   1
    60     5    55   1
    61     5    56   1
    62     6    57   1
    63     9    58   1
    64    10    59   1
    65    18    60   1
    66    18    61   1
    67    19    62   1
    68    19    63   1
    69    19    64   1
    70    20    65   1
    71    20    66   1
    72    20    67   1
    73    21    68   1
    74    24    69   1
    75    25    70   1
    76    25    71   1
    77    26    72   1
    78    29    73   1
    79    30    74   1
    80    31    75   1
    81    32    76   1
    82    34    77   1
    83    34    78   1
    84    35    79   1
    85    38    80   1
    86    41    81   1
    87    41    82   1
    88    42    83   1
    89    42    84   1
    90    43    85   1
    91    43    86   1
    92    44    87   1
    93    44    88   1
    94    45    89   1
    95    45    90   1
    96    47    91   1
    97    47    92   1
    98    48    93   1
    99    48    94   1
   100    48    95   1
   101    49    96   1
   102    49    97   1
   103    49    98   1
   104    50    99   1
   105    50   100   1
   106    50   101   1
   107    51   102   1
   108    51   103   1
   109    51   104   1
   110    52   105   1
   111    52   106   1
@<TRIPOS>SUBSTRUCTURE
     1  SU3      1

