@<TRIPOS>MOLECULE
3su5_ligand_081
   106   111
SMALL
GAST_HUCK
****
This file was generated by PARSER (from files_GN.cpp)

@<TRIPOS>ATOM
      1 C         -12.3348   -5.8010    8.7834 C.2         1 SU3       0.2013
      2 N          -9.8725   -5.4493    8.8968 N.am        1 SU3      -0.2469
      3 O         -12.2415   -6.5679    9.7354 O.2         1 SU3      -0.3947
      4 CA        -11.1189   -5.2643    8.1717 C.3         1 SU3       0.1363
      5 CB        -10.8737   -5.9108    6.7877 C.3         1 SU3       0.0206
      6 CG         -9.3468   -5.8566    6.6175 C.3         1 SU3       0.1158
      7 CAF        -9.6909   -5.0810   10.1821 C.2         1 SU3       0.2070
      8 OAG       -10.6031   -4.4596   10.7179 O.2         1 SU3      -0.3942
      9 CAH        -8.4977   -5.3100   11.0226 C.3         1 SU3       0.1378
     10 NAI        -8.0940   -4.0099   11.4979 N.am        1 SU3      -0.2407
     11 CAJ        -6.9275   -3.3781   11.2227 C.2         1 SU3       0.3218
     12 OAK        -6.7320   -2.1656   11.8037 O.3         1 SU3      -0.2633
     13 CAL        -8.6454   -6.3852   12.1949 C.3         1 SU3       0.0025
     14 OAM        -5.9891   -3.9203   10.4098 O.2         1 SU3      -0.3774
     15 CAO        -9.0078   -4.1409    4.8040 C.2         1 SU3       0.4317
     16 OAP        -9.6241   -4.9134    3.8757 O.2         1 SU3      -0.3166
     17 NAQ        -8.4765   -2.9414    4.4589 N.am        1 SU3      -0.2080
     18 CAR       -17.3517   -6.3594    8.0644 C.3         1 SU3      -0.0516
     19 CAS       -17.9593   -5.2944    7.1270 C.3         1 SU3      -0.0651
     20 CAT        -8.3861   -7.8175   11.6171 C.3         1 SU3      -0.0558
     21 NAV       -13.5262   -5.4352    8.3232 N.am        1 SU3      -0.2737
     22 CAX       -14.7887   -5.7722    8.9090 C.3         1 SU3       0.1374
     23 CAY       -15.2568   -4.9036    9.9771 C.2         1 SU3       0.2444
     24 CAZ       -15.8057   -6.4360    7.9390 C.3         1 SU3      -0.0066
     25 CBA       -15.1198   -7.2725    9.0280 C.3         1 SU3      -0.0152
     26 CBB        -8.5104   -2.3786    3.2283 C.2         1 SU3       0.0383
     27 CBC        -7.8521   -1.1572    3.2718 C.ar        1 SU3      -0.0374
     28 CBD        -7.4006   -0.9746    4.5778 C.ar        1 SU3      -0.0293
     29 CBE        -7.8055   -2.1027    5.2864 C.2         1 SU3       0.0366
     30 CBF        -7.6084   -0.1980    2.2743 C.ar        1 SU3      -0.0689
     31 CBG        -6.8906    0.9629    2.6202 C.ar        1 SU3      -0.0688
     32 CBH        -6.4269    1.1504    3.9409 C.ar        1 SU3      -0.0606
     33 CBI        -6.6737    0.1844    4.9497 C.ar        1 SU3      -0.0432
     34 CBJ        -6.1861    0.3882    6.3407 C.3         1 SU3      -0.0194
     35 NBK       -14.7531   -5.0424   11.1965 N.am        1 SU3      -0.1552
     36 OBL       -16.0262   -3.9947    9.7017 O.2         1 SU3      -0.3404
     37 SBM       -15.2072   -4.1016   12.5210 S.o2        1 SU3       0.0645
     38 CBN       -14.3081   -4.3897   14.0646 C.3         1 SU3       0.1004
     39 OBO       -15.0534   -2.5553   12.1785 O.2         1 SU3      -0.1503
     40 OBP       -16.7300   -4.4083   12.8569 O.2         1 SU3      -0.1503
     41 CBQ       -13.4033   -5.6226   14.2200 C.3         1 SU3      -0.0268
     42 CBR       -12.7803   -4.2363   13.9987 C.3         1 SU3      -0.0268
     43 CBS        -7.3295    0.8022    7.3070 C.3         1 SU3      -0.0433
     44 CBT        -6.8709    1.1097    8.7595 C.3         1 SU3      -0.0507
     45 CBU        -6.4049   -0.1357    9.5730 C.3         1 SU3      -0.0453
     46 CBV        -5.9710    0.0903   11.0713 C.3         1 SU3      -0.0072
     47 CBW        -5.5942   -1.2953   11.7029 C.3         1 SU3       0.0824
     48 CBX        -4.7096    1.0115   11.1463 C.3         1 SU3      -0.0574
     49 CBY        -7.1240    0.7315   11.9120 C.3         1 SU3      -0.0574
     50 CBZ        -7.5941   -6.1377   13.3307 C.3         1 SU3      -0.0558
     51 CCA       -10.0503   -6.4009   12.8710 C.3         1 SU3      -0.0558
     52 CD1        -8.8430   -5.9996    8.0652 C.3         1 SU3       0.0677
     53 OD2        -8.8907   -4.6013    6.0818 O.3         1 SU3      -0.2338
     54 H1        -11.2480   -4.1860    8.0333 H           1 SU3       0.0803
     55 H2        -11.3997   -5.3744    5.9934 H           1 SU3       0.0342
     56 H3        -11.1913   -6.9609    6.7755 H           1 SU3       0.0342
     57 H4         -8.9766   -6.6813    5.9966 H           1 SU3       0.0673
     58 H5         -7.6901   -5.6771   10.3863 H           1 SU3       0.0805
     59 H6         -8.7053   -3.5498   12.0915 H           1 SU3       0.1899
     60 H7        -17.7621   -7.3353    7.7943 H           1 SU3       0.0265
     61 H8        -17.6573   -6.1420    9.0904 H           1 SU3       0.0265
     62 H9        -19.0486   -5.3248    7.1928 H           1 SU3       0.0230
     63 H10       -17.6694   -5.4851    6.0921 H           1 SU3       0.0230
     64 H11       -17.6230   -4.2957    7.4107 H           1 SU3       0.0230
     65 H12        -8.5438   -8.5778   12.3843 H           1 SU3       0.0237
     66 H13        -7.3577   -7.9164   11.2579 H           1 SU3       0.0237
     67 H14        -9.0612   -8.0314   10.7837 H           1 SU3       0.0237
     68 H15       -13.5402   -4.8335    7.5609 H           1 SU3       0.1839
     69 H16       -15.4210   -6.6727    6.9428 H           1 SU3       0.0312
     70 H17       -15.7285   -7.5616    9.8816 H           1 SU3       0.0279
     71 H18       -14.3788   -7.9775    8.6562 H           1 SU3       0.0279
     72 H19        -8.9442   -2.7782    2.3927 H           1 SU3       0.0373
     73 H20        -7.6156   -2.2704    6.2781 H           1 SU3       0.0361
     74 H21        -7.9419   -0.3400    1.3189 H           1 SU3       0.0557
     75 H22        -6.7035    1.6750    1.9109 H           1 SU3       0.0599
     76 H23        -5.9123    2.0063    4.1633 H           1 SU3       0.0557
     77 H24        -5.4175    1.1662    6.3614 H           1 SU3       0.0426
     78 H25        -5.7115   -0.5344    6.6820 H           1 SU3       0.0426
     79 H26       -14.0948   -5.7374   11.3382 H           1 SU3       0.2148
     80 H27       -14.7291   -3.9779   14.9860 H           1 SU3       0.0559
     81 H28       -13.3422   -6.3066   13.3739 H           1 SU3       0.0285
     82 H29       -13.3204   -6.0185   15.2360 H           1 SU3       0.0285
     83 H30       -12.2871   -3.8231   14.8812 H           1 SU3       0.0285
     84 H31       -12.3482   -4.0665   13.0130 H           1 SU3       0.0285
     85 H32        -8.0950    0.0234    7.3338 H           1 SU3       0.0287
     86 H33        -7.7987    1.7062    6.9080 H           1 SU3       0.0287
     87 H34        -7.7204    1.5641    9.2725 H           1 SU3       0.0267
     88 H35        -6.0713    1.8514    8.7205 H           1 SU3       0.0267
     89 H36        -5.5655   -0.5917    9.0429 H           1 SU3       0.0271
     90 H37        -7.2223   -0.8602    9.5521 H           1 SU3       0.0271
     91 H38        -4.7942   -1.7654   11.1250 H           1 SU3       0.0617
     92 H39        -5.2146   -1.1575   12.7190 H           1 SU3       0.0617
     93 H40        -4.9317    2.0183   10.7886 H           1 SU3       0.0236
     94 H41        -3.8972    0.6058   10.5389 H           1 SU3       0.0236
     95 H42        -4.3528    1.1001   12.1754 H           1 SU3       0.0236
     96 H43        -8.0496    0.1622   11.8009 H           1 SU3       0.0236
     97 H44        -7.3173    1.7589   11.5992 H           1 SU3       0.0236
     98 H45        -6.8635    0.7535   12.9720 H           1 SU3       0.0236
     99 H46        -7.7922   -5.1976   13.8473 H           1 SU3       0.0237
    100 H47        -6.5852   -6.0943   12.9211 H           1 SU3       0.0237
    101 H48        -7.6246   -6.9326   14.0770 H           1 SU3       0.0237
    102 H49       -10.8274   -6.7037   12.1692 H           1 SU3       0.0237
    103 H50       -10.2679   -5.4024   13.2378 H           1 SU3       0.0237
    104 H51       -10.0916   -7.0898   13.7162 H           1 SU3       0.0237
    105 H52        -8.6927   -7.0523    8.3172 H           1 SU3       0.0553
    106 H53        -7.8955   -5.4626    8.1639 H           1 SU3       0.0553
@<TRIPOS>BOND
     1     1     3   2
     2     1     4   1
     3    21     1  am
     4     4     2   1
     5     2     7  am
     6     2    52   1
     7     4     5   1
     8     5     6   1
     9     6    52   1
    10     6    53   1
    11     7     8   2
    12     7     9   1
    13     9    10   1
    14     9    13   1
    15    10    11  am
    16    11    12   1
    17    11    14   2
    18    12    47   1
    19    13    20   1
    20    13    50   1
    21    13    51   1
    22    15    16   2
    23    15    17  am
    24    53    15   1
    25    17    26   1
    26    17    29   1
    27    18    19   1
    28    24    18   1
    29    22    21   1
    30    22    23   1
    31    22    24   1
    32    22    25   1
    33    23    35  am
    34    23    36   2
    35    24    25   1
    36    26    27   2
    37    27    28  ar
    38    27    30  ar
    39    28    29   2
    40    28    33  ar
    41    30    31  ar
    42    31    32  ar
    43    32    33  ar
    44    33    34   1
    45    34    43   1
    46    35    37  am
    47    37    38   1
    48    37    39   2
    49    37    40   2
    50    38    41   1
    51    38    42   1
    52    41    42   1
    53    43    44   1
    54    44    45   1
    55    45    46   1
    56    46    47   1
    57    46    48   1
    58    46    49   1
    59     4    54   1
    60     5    55   1
    61     5    56   1
    62     6    57   1
    63     9    58   1
    64    10    59   1
    65    18    60   1
    66    18    61   1
    67    19    62   1
    68    19    63   1
    69    19    64   1
    70    20    65   1
    71    20    66   1
    72    20    67   1
    73    21    68   1
    74    24    69   1
    75    25    70   1
    76    25    71   1
    77    26    72   1
    78    29    73   1
    79    30    74   1
    80    31    75   1
    81    32    76   1
    82    34    77   1
    83    34    78   1
    84    35    79   1
    85    38    80   1
    86    41    81   1
    87    41    82   1
    88    42    83   1
    89    42    84   1
    90    43    85   1
    91    43    86   1
    92    44    87   1
    93    44    88   1
    94    45    89   1
    95    45    90   1
    96    47    91   1
    97    47    92   1
    98    48    93   1
    99    48    94   1
   100    48    95   1
   101    49    96   1
   102    49    97   1
   103    49    98   1
   104    50    99   1
   105    50   100   1
   106    50   101   1
   107    51   102   1
   108    51   103   1
   109    51   104   1
   110    52   105   1
   111    52   106   1
@<TRIPOS>SUBSTRUCTURE
     1  SU3      1

