@<TRIPOS>MOLECULE
3su5_ligand_004
   106   111
SMALL
GAST_HUCK
****
This file was generated by PARSER (from files_GN.cpp)

@<TRIPOS>ATOM
      1 C         -13.7005   -7.9408   13.1699 C.2         1 SU3       0.2013
      2 N         -15.2929   -9.6888   13.6057 N.am        1 SU3      -0.2469
      3 O         -13.4967   -6.9322   13.8450 O.2         1 SU3      -0.3947
      4 CA        -13.9376   -9.2311   13.8179 C.3         1 SU3       0.1363
      5 CB        -12.9929  -10.3288   13.2625 C.3         1 SU3       0.0206
      6 CG        -13.9111  -11.4557   12.7541 C.3         1 SU3       0.1158
      7 CAF       -16.3745   -9.0413   14.0871 C.2         1 SU3       0.2070
      8 OAG       -16.1875   -8.1348   14.8909 O.2         1 SU3      -0.3942
      9 CAH       -17.7806   -9.3710   13.8161 C.3         1 SU3       0.1378
     10 NAI       -18.3810   -9.8119   15.0540 N.am        1 SU3      -0.2407
     11 CAJ       -18.8991  -11.0408   15.2851 C.2         1 SU3       0.3218
     12 OAK       -19.4537  -11.2795   16.5040 O.3         1 SU3      -0.2633
     13 CAL       -18.6242   -8.2322   13.1065 C.3         1 SU3       0.0025
     14 OAM       -18.9236  -11.9989   14.3292 O.2         1 SU3      -0.3774
     15 CAO       -12.7853  -13.4911   13.7073 C.2         1 SU3       0.4317
     16 OAP       -11.6790  -13.3258   12.9448 O.2         1 SU3      -0.3166
     17 NAQ       -12.8619  -14.4991   14.6114 N.am        1 SU3      -0.2080
     18 CAR       -11.1924   -5.1922   10.5752 C.3         1 SU3      -0.0516
     19 CAS        -9.8095   -5.3958    9.9188 C.3         1 SU3      -0.0651
     20 CAT       -18.2862   -6.7821   13.6033 C.3         1 SU3      -0.0558
     21 NAV       -13.7433   -7.8714   11.8445 N.am        1 SU3      -0.2737
     22 CAX       -13.4019   -6.7275   11.0726 C.3         1 SU3       0.1374
     23 CAY       -14.2376   -5.5583   11.2065 C.2         1 SU3       0.2444
     24 CAZ       -11.8805   -6.5575   10.8045 C.3         1 SU3      -0.0066
     25 CBA       -12.8111   -7.0514    9.6892 C.3         1 SU3      -0.0152
     26 CBB       -11.8908  -15.3986   14.8947 C.2         1 SU3       0.0383
     27 CBC       -12.3441  -16.2426   15.9037 C.ar        1 SU3      -0.0374
     28 CBD       -13.6357  -15.8403   16.2309 C.ar        1 SU3      -0.0293
     29 CBE       -13.9276  -14.7577   15.4042 C.2         1 SU3       0.0366
     30 CBF       -11.7256  -17.3129   16.5657 C.ar        1 SU3      -0.0689
     31 CBG       -12.4463  -17.9835   17.5723 C.ar        1 SU3      -0.0688
     32 CBH       -13.7623  -17.5847   17.9010 C.ar        1 SU3      -0.0606
     33 CBI       -14.3856  -16.4965   17.2373 C.ar        1 SU3      -0.0432
     34 CBJ       -15.7604  -16.0581   17.5985 C.3         1 SU3      -0.0194
     35 NBK       -14.1791   -4.8656   12.3320 N.am        1 SU3      -0.1552
     36 OBL       -15.0419   -5.3263   10.3112 O.2         1 SU3      -0.3404
     37 SBM       -15.2265   -3.6060   12.7374 S.o2        1 SU3       0.0645
     38 CBN       -14.8513   -3.0518   14.4169 C.3         1 SU3       0.1004
     39 OBO       -15.0626   -2.3775   11.7367 O.2         1 SU3      -0.1503
     40 OBP       -16.7155   -4.1702   12.7236 O.2         1 SU3      -0.1503
     41 CBQ       -15.9831   -2.9765   15.4505 C.3         1 SU3      -0.0268
     42 CBR       -14.9356   -4.0981   15.5359 C.3         1 SU3      -0.0268
     43 CBS       -15.7576  -14.7713   18.4753 C.3         1 SU3      -0.0433
     44 CBT       -17.1649  -14.2995   18.9364 C.3         1 SU3      -0.0507
     45 CBU       -18.0141  -13.6038   17.8278 C.3         1 SU3      -0.0453
     46 CBV       -19.4712  -13.1406   18.2012 C.3         1 SU3      -0.0072
     47 CBW       -20.1345  -12.4685   16.9486 C.3         1 SU3       0.0824
     48 CBX       -20.3516  -14.3743   18.5992 C.3         1 SU3      -0.0574
     49 CBY       -19.4649  -12.1163   19.3851 C.3         1 SU3      -0.0574
     50 CBZ       -18.3891   -8.2836   11.5557 C.3         1 SU3      -0.0558
     51 CCA       -20.1541   -8.4852   13.3618 C.3         1 SU3      -0.0558
     52 CD1       -15.3418  -10.8872   12.8222 C.3         1 SU3       0.0677
     53 OD2       -13.8179  -12.6181   13.5864 O.3         1 SU3      -0.2338
     54 H1        -13.7593   -9.1362   14.8975 H           1 SU3       0.0803
     55 H2        -12.3400  -10.6839   14.0674 H           1 SU3       0.0342
     56 H3        -12.3436   -9.9723   12.4526 H           1 SU3       0.0342
     57 H4        -13.6595  -11.7249   11.7245 H           1 SU3       0.0673
     58 H5        -17.8110  -10.1989   13.1062 H           1 SU3       0.0805
     59 H6        -18.4296   -9.1634   15.7761 H           1 SU3       0.1899
     60 H7        -11.7947   -4.5360    9.9353 H           1 SU3       0.0265
     61 H8        -11.0662   -4.6953   11.5413 H           1 SU3       0.0265
     62 H9         -9.3326   -4.4363    9.7447 H           1 SU3       0.0230
     63 H10        -9.9231   -5.9126    8.9645 H           1 SU3       0.0230
     64 H11        -9.1606   -5.9945   10.5688 H           1 SU3       0.0230
     65 H12       -19.0210   -6.0644   13.2468 H           1 SU3       0.0237
     66 H13       -17.3064   -6.4491   13.2378 H           1 SU3       0.0237
     67 H14       -18.2744   -6.7481   14.6922 H           1 SU3       0.0237
     68 H15       -13.9421   -8.6905   11.3536 H           1 SU3       0.1839
     69 H16       -11.2521   -7.3488   11.2264 H           1 SU3       0.0312
     70 H17       -13.0087   -6.3472    8.8860 H           1 SU3       0.0279
     71 H18       -12.6959   -8.1048    9.4401 H           1 SU3       0.0279
     72 H19       -10.9661  -15.4473   14.4584 H           1 SU3       0.0373
     73 H20       -14.8106  -14.2441   15.4089 H           1 SU3       0.0361
     74 H21       -10.7685  -17.5903   16.3333 H           1 SU3       0.0557
     75 H22       -12.0091  -18.7555   18.0714 H           1 SU3       0.0599
     76 H23       -14.2556  -18.0876   18.6415 H           1 SU3       0.0557
     77 H24       -16.2737  -16.8489   18.1509 H           1 SU3       0.0426
     78 H25       -16.3314  -15.8908   16.6839 H           1 SU3       0.0426
     79 H26       -13.5153   -5.1375   12.9864 H           1 SU3       0.2148
     80 H27       -14.0421   -2.3361   14.5547 H           1 SU3       0.0559
     81 H28       -16.9775   -3.3220   15.1686 H           1 SU3       0.0285
     82 H29       -15.8936   -2.1896   16.2000 H           1 SU3       0.0285
     83 H30       -14.2324   -3.9963   16.3641 H           1 SU3       0.0285
     84 H31       -15.3075   -5.0903   15.2734 H           1 SU3       0.0285
     85 H32       -15.2649  -13.9539   17.9427 H           1 SU3       0.0287
     86 H33       -15.1649  -14.9781   19.3712 H           1 SU3       0.0287
     87 H34       -17.0203  -13.5895   19.7554 H           1 SU3       0.0267
     88 H35       -17.7018  -15.1595   19.3394 H           1 SU3       0.0267
     89 H36       -18.0834  -14.2863   16.9765 H           1 SU3       0.0271
     90 H37       -17.4470  -12.7307   17.4890 H           1 SU3       0.0271
     91 H38       -20.2067  -13.1967   16.1394 H           1 SU3       0.0617
     92 H39       -21.1537  -12.1576   17.1917 H           1 SU3       0.0617
     93 H40       -20.0065  -14.8272   19.5295 H           1 SU3       0.0236
     94 H41       -20.3234  -15.1370   17.8201 H           1 SU3       0.0236
     95 H42       -21.3949  -14.0799   18.7456 H           1 SU3       0.0236
     96 H43       -18.8052  -11.2747   19.1607 H           1 SU3       0.0236
     97 H44       -19.1224  -12.5816   20.3097 H           1 SU3       0.0236
     98 H45       -20.4674  -11.7237   19.5660 H           1 SU3       0.0236
     99 H46       -18.6981   -9.2547   11.1511 H           1 SU3       0.0237
    100 H47       -17.3325   -8.1402   11.3114 H           1 SU3       0.0237
    101 H48       -18.9645   -7.5102   11.0433 H           1 SU3       0.0237
    102 H49       -20.3871   -8.3409   14.4267 H           1 SU3       0.0237
    103 H50       -20.4394   -9.5049   13.0884 H           1 SU3       0.0237
    104 H51       -20.7750   -7.7952   12.7926 H           1 SU3       0.0237
    105 H52       -15.7106  -10.6593   11.8223 H           1 SU3       0.0553
    106 H53       -15.9999  -11.6246   13.2837 H           1 SU3       0.0553
@<TRIPOS>BOND
     1     1     3   2
     2     1     4   1
     3    21     1  am
     4     4     2   1
     5     2     7  am
     6     2    52   1
     7     4     5   1
     8     5     6   1
     9     6    52   1
    10     6    53   1
    11     7     8   2
    12     7     9   1
    13     9    10   1
    14     9    13   1
    15    10    11  am
    16    11    12   1
    17    11    14   2
    18    12    47   1
    19    13    20   1
    20    13    50   1
    21    13    51   1
    22    15    16   2
    23    15    17  am
    24    53    15   1
    25    17    26   1
    26    17    29   1
    27    18    19   1
    28    24    18   1
    29    22    21   1
    30    22    23   1
    31    22    24   1
    32    22    25   1
    33    23    35  am
    34    23    36   2
    35    24    25   1
    36    26    27   2
    37    27    28  ar
    38    27    30  ar
    39    28    29   2
    40    28    33  ar
    41    30    31  ar
    42    31    32  ar
    43    32    33  ar
    44    33    34   1
    45    34    43   1
    46    35    37  am
    47    37    38   1
    48    37    39   2
    49    37    40   2
    50    38    41   1
    51    38    42   1
    52    41    42   1
    53    43    44   1
    54    44    45   1
    55    45    46   1
    56    46    47   1
    57    46    48   1
    58    46    49   1
    59     4    54   1
    60     5    55   1
    61     5    56   1
    62     6    57   1
    63     9    58   1
    64    10    59   1
    65    18    60   1
    66    18    61   1
    67    19    62   1
    68    19    63   1
    69    19    64   1
    70    20    65   1
    71    20    66   1
    72    20    67   1
    73    21    68   1
    74    24    69   1
    75    25    70   1
    76    25    71   1
    77    26    72   1
    78    29    73   1
    79    30    74   1
    80    31    75   1
    81    32    76   1
    82    34    77   1
    83    34    78   1
    84    35    79   1
    85    38    80   1
    86    41    81   1
    87    41    82   1
    88    42    83   1
    89    42    84   1
    90    43    85   1
    91    43    86   1
    92    44    87   1
    93    44    88   1
    94    45    89   1
    95    45    90   1
    96    47    91   1
    97    47    92   1
    98    48    93   1
    99    48    94   1
   100    48    95   1
   101    49    96   1
   102    49    97   1
   103    49    98   1
   104    50    99   1
   105    50   100   1
   106    50   101   1
   107    51   102   1
   108    51   103   1
   109    51   104   1
   110    52   105   1
   111    52   106   1
@<TRIPOS>SUBSTRUCTURE
     1  SU3      1

