@<TRIPOS>MOLECULE
3u9q_ligand_003
    31    30
SMALL
GAST_HUCK
****
This file was generated by PARSER (from files_GN.cpp)

@<TRIPOS>ATOM
      1 C1          1.0866   -1.7728   20.4409 C.2         1 DKA       0.0348
      2 O1          0.0536   -2.4179   19.8298 O.co2       1 DKA      -0.5690
      3 C2          1.4212   -2.0395   21.8528 C.3         1 DKA       0.0002
      4 C3          1.1242   -0.8237   22.7743 C.3         1 DKA      -0.0414
      5 C4          1.3785   -1.1044   24.2834 C.3         1 DKA      -0.0516
      6 C5          0.1515   -1.7265   25.0045 C.3         1 DKA      -0.0530
      7 C6          0.4786   -2.3794   26.3805 C.3         1 DKA      -0.0531
      8 C7         -0.3748   -3.6561   26.6379 C.3         1 DKA      -0.0531
      9 C8          0.1881   -4.9187   25.9128 C.3         1 DKA      -0.0533
     10 C9         -0.8398   -6.0737   25.7003 C.3         1 DKA      -0.0559
     11 C10        -1.1211   -6.3970   24.2113 C.3         1 DKA      -0.0653
     12 O2          1.9068   -1.0120   19.6851 O.co2       1 DKA      -0.5690
     13 H1          2.4831   -2.2823   21.9038 H           1 DKA       0.0430
     14 H2          0.8662   -2.9151   22.1835 H           1 DKA       0.0430
     15 H3          0.0872   -0.5042   22.6457 H           1 DKA       0.0283
     16 H4          1.7681    0.0053   22.4698 H           1 DKA       0.0283
     17 H5          1.6262   -0.1676   24.7925 H           1 DKA       0.0266
     18 H6          2.2412   -1.7687   24.3815 H           1 DKA       0.0266
     19 H7         -0.3077   -2.4569   24.3363 H           1 DKA       0.0265
     20 H8         -0.5920   -0.9414   25.1635 H           1 DKA       0.0265
     21 H9          0.2796   -1.6457   27.1694 H           1 DKA       0.0265
     22 H10         1.5353   -2.6451   26.4542 H           1 DKA       0.0265
     23 H11        -1.4013   -3.4533   26.3182 H           1 DKA       0.0265
     24 H12        -0.3967   -3.8516   27.7141 H           1 DKA       0.0265
     25 H13         1.0186   -5.2939   26.5119 H           1 DKA       0.0265
     26 H14         0.6177   -4.6314   24.9527 H           1 DKA       0.0265
     27 H15        -1.7916   -5.8359   26.1812 H           1 DKA       0.0263
     28 H16        -0.4694   -6.9912   26.1697 H           1 DKA       0.0263
     29 H17        -1.9173   -7.1417   24.1300 H           1 DKA       0.0230
     30 H18        -0.2181   -6.7968   23.7432 H           1 DKA       0.0230
     31 H19        -1.4309   -5.4960   23.6788 H           1 DKA       0.0230
@<TRIPOS>BOND
     1     1     2  ar
     2     1     3   1
     3     1    12  ar
     4     3     4   1
     5     4     5   1
     6     5     6   1
     7     6     7   1
     8     7     8   1
     9     8     9   1
    10     9    10   1
    11    10    11   1
    12     3    13   1
    13     3    14   1
    14     4    15   1
    15     4    16   1
    16     5    17   1
    17     5    18   1
    18     6    19   1
    19     6    20   1
    20     7    21   1
    21     7    22   1
    22     8    23   1
    23     8    24   1
    24     9    25   1
    25     9    26   1
    26    10    27   1
    27    10    28   1
    28    11    29   1
    29    11    30   1
    30    11    31   1
@<TRIPOS>SUBSTRUCTURE
     1  DKA      1

