@<TRIPOS>MOLECULE
3u9q_ligand_028
    31    30
SMALL
GAST_HUCK
****
This file was generated by PARSER (from files_GN.cpp)

@<TRIPOS>ATOM
      1 C1          4.3788    4.2661   20.5890 C.2         1 DKA       0.0348
      2 O1          4.2431    3.2263   19.7449 O.co2       1 DKA      -0.5690
      3 C2          3.4798    5.4321   20.5442 C.3         1 DKA       0.0002
      4 C3          2.8978    5.8251   21.9383 C.3         1 DKA      -0.0414
      5 C4          1.4702    5.3361   22.2534 C.3         1 DKA      -0.0516
      6 C5          1.2031    3.8041   22.1487 C.3         1 DKA      -0.0530
      7 C6          2.2856    2.9395   22.8438 C.3         1 DKA      -0.0531
      8 C7          2.0868    1.4109   22.5810 C.3         1 DKA      -0.0531
      9 C8          3.3426    0.5775   22.9784 C.3         1 DKA      -0.0533
     10 C9          4.4142    0.4573   21.8275 C.3         1 DKA      -0.0559
     11 C10         4.5952   -0.9952   21.3160 C.3         1 DKA      -0.0653
     12 O2          5.2828    4.1532   21.5865 O.co2       1 DKA      -0.5690
     13 H1          2.6610    5.2217   19.8605 H           1 DKA       0.0430
     14 H2          4.0328    6.2743   20.1337 H           1 DKA       0.0430
     15 H3          2.8810    6.9226   21.9877 H           1 DKA       0.0283
     16 H4          3.5700    5.5011   22.7384 H           1 DKA       0.0283
     17 H5          0.7684    5.8325   21.5771 H           1 DKA       0.0266
     18 H6          1.2127    5.6502   23.2731 H           1 DKA       0.0266
     19 H7          1.1459    3.5136   21.0913 H           1 DKA       0.0265
     20 H8          0.2354    3.5793   22.6041 H           1 DKA       0.0265
     21 H9          2.2481    3.0920   23.9344 H           1 DKA       0.0265
     22 H10         3.2860    3.2419   22.4804 H           1 DKA       0.0265
     23 H11         1.8510    1.2254   21.5271 H           1 DKA       0.0265
     24 H12         1.2296    1.0438   23.1807 H           1 DKA       0.0265
     25 H13         3.0207   -0.4273   23.2908 H           1 DKA       0.0265
     26 H14         3.8253    1.0347   23.8469 H           1 DKA       0.0265
     27 H15         5.3891    0.8068   22.1976 H           1 DKA       0.0263
     28 H16         4.1457    1.0816   20.9731 H           1 DKA       0.0263
     29 H17         5.3253   -1.0193   20.4842 H           1 DKA       0.0230
     30 H18         3.6359   -1.4052   20.9477 H           1 DKA       0.0230
     31 H19         4.9696   -1.6430   22.1279 H           1 DKA       0.0230
@<TRIPOS>BOND
     1     1     2  ar
     2     1     3   1
     3     1    12  ar
     4     3     4   1
     5     4     5   1
     6     5     6   1
     7     6     7   1
     8     7     8   1
     9     8     9   1
    10     9    10   1
    11    10    11   1
    12     3    13   1
    13     3    14   1
    14     4    15   1
    15     4    16   1
    16     5    17   1
    17     5    18   1
    18     6    19   1
    19     6    20   1
    20     7    21   1
    21     7    22   1
    22     8    23   1
    23     8    24   1
    24     9    25   1
    25     9    26   1
    26    10    27   1
    27    10    28   1
    28    11    29   1
    29    11    30   1
    30    11    31   1
@<TRIPOS>SUBSTRUCTURE
     1  DKA      1

