@<TRIPOS>MOLECULE
3u9q_ligand_008
    31    30
SMALL
GAST_HUCK
****
This file was generated by PARSER (from files_GN.cpp)

@<TRIPOS>ATOM
      1 C1         -0.3819   -4.8316   24.4500 C.2         1 DKA       0.0348
      2 O1         -0.0458   -5.6582   25.4684 O.co2       1 DKA      -0.5690
      3 C2         -0.4763   -3.3823   24.7262 C.3         1 DKA       0.0002
      4 C3          0.7397   -2.6192   24.1353 C.3         1 DKA      -0.0414
      5 C4          0.6605   -1.0974   24.4446 C.3         1 DKA      -0.0516
      6 C5          1.9906   -0.3313   24.1533 C.3         1 DKA      -0.0530
      7 C6          1.8892    0.7717   23.0574 C.3         1 DKA      -0.0531
      8 C7          2.6160    2.0941   23.4533 C.3         1 DKA      -0.0531
      9 C8          2.2409    3.2446   22.4747 C.3         1 DKA      -0.0533
     10 C9          3.1178    4.5279   22.6092 C.3         1 DKA      -0.0559
     11 C10         2.4343    5.6812   23.3832 C.3         1 DKA      -0.0653
     12 O2         -1.0925   -5.3549   23.4136 O.co2       1 DKA      -0.5690
     13 H1         -0.5136   -3.2188   25.8174 H           1 DKA       0.0430
     14 H2         -1.4224   -3.0050   24.2981 H           1 DKA       0.0430
     15 H3          0.7523   -2.7675   23.0429 H           1 DKA       0.0283
     16 H4          1.6596   -3.0469   24.5654 H           1 DKA       0.0283
     17 H5          0.3968   -0.9917   25.4998 H           1 DKA       0.0266
     18 H6         -0.1574   -0.6775   23.8505 H           1 DKA       0.0266
     19 H7          2.7692   -1.0344   23.8283 H           1 DKA       0.0265
     20 H8          2.3208    0.1212   25.0941 H           1 DKA       0.0265
     21 H9          0.8322    0.9777   22.8123 H           1 DKA       0.0265
     22 H10         2.3576    0.3805   22.1430 H           1 DKA       0.0265
     23 H11         3.7044    1.9549   23.4197 H           1 DKA       0.0265
     24 H12         2.3385    2.3652   24.4775 H           1 DKA       0.0265
     25 H13         1.1960    3.5302   22.6489 H           1 DKA       0.0265
     26 H14         2.3187    2.8698   21.4405 H           1 DKA       0.0265
     27 H15         3.3397    4.9055   21.6112 H           1 DKA       0.0263
     28 H16         4.0609    4.2623   23.0967 H           1 DKA       0.0263
     29 H17         3.0958    6.5440   23.4094 H           1 DKA       0.0230
     30 H18         2.2095    5.3808   24.4075 H           1 DKA       0.0230
     31 H19         1.5064    5.9749   22.8896 H           1 DKA       0.0230
@<TRIPOS>BOND
     1     1     2  ar
     2     1     3   1
     3     1    12  ar
     4     3     4   1
     5     4     5   1
     6     5     6   1
     7     6     7   1
     8     7     8   1
     9     8     9   1
    10     9    10   1
    11    10    11   1
    12     3    13   1
    13     3    14   1
    14     4    15   1
    15     4    16   1
    16     5    17   1
    17     5    18   1
    18     6    19   1
    19     6    20   1
    20     7    21   1
    21     7    22   1
    22     8    23   1
    23     8    24   1
    24     9    25   1
    25     9    26   1
    26    10    27   1
    27    10    28   1
    28    11    29   1
    29    11    30   1
    30    11    31   1
@<TRIPOS>SUBSTRUCTURE
     1  DKA      1

