@<TRIPOS>MOLECULE
3u9q_ligand_024
    31    30
SMALL
GAST_HUCK
****
This file was generated by PARSER (from files_GN.cpp)

@<TRIPOS>ATOM
      1 C1          4.9090    0.9146   17.9903 C.2         1 DKA       0.0348
      2 O1          5.9558    1.7262   17.7026 O.co2       1 DKA      -0.5690
      3 C2          3.8415    1.3910   18.8911 C.3         1 DKA       0.0002
      4 C3          3.6116    2.9265   18.8517 C.3         1 DKA      -0.0414
      5 C4          2.8145    3.4687   20.0759 C.3         1 DKA      -0.0516
      6 C5          3.5741    4.5825   20.8508 C.3         1 DKA      -0.0530
      7 C6          2.8509    5.0714   22.1360 C.3         1 DKA      -0.0531
      8 C7          2.4298    3.9810   23.1615 C.3         1 DKA      -0.0531
      9 C8          3.4403    2.8093   23.2959 C.3         1 DKA      -0.0533
     10 C9          3.1349    1.8559   24.4793 C.3         1 DKA      -0.0559
     11 C10         2.4035    0.5550   24.0738 C.3         1 DKA      -0.0653
     12 O2          5.1748   -0.4178   17.9799 O.co2       1 DKA      -0.5690
     13 H1          4.0924    1.0839   19.9132 H           1 DKA       0.0430
     14 H2          2.9026    0.9011   18.6119 H           1 DKA       0.0430
     15 H3          3.0746    3.1752   17.9279 H           1 DKA       0.0283
     16 H4          4.5816    3.4311   18.8042 H           1 DKA       0.0283
     17 H5          2.5762    2.6357   20.7472 H           1 DKA       0.0266
     18 H6          1.8607    3.8869   19.7467 H           1 DKA       0.0266
     19 H7          3.6904    5.4420   20.1835 H           1 DKA       0.0265
     20 H8          4.5798    4.2283   21.1082 H           1 DKA       0.0265
     21 H9          1.9558    5.6304   21.8496 H           1 DKA       0.0265
     22 H10         3.5239    5.7723   22.6472 H           1 DKA       0.0265
     23 H11         1.4502    3.5817   22.8891 H           1 DKA       0.0265
     24 H12         2.3247    4.4717   24.1346 H           1 DKA       0.0265
     25 H13         4.4414    3.2330   23.4240 H           1 DKA       0.0265
     26 H14         3.4480    2.2329   22.3666 H           1 DKA       0.0265
     27 H15         2.5415    2.3867   25.2303 H           1 DKA       0.0263
     28 H16         4.0849    1.5787   24.9403 H           1 DKA       0.0263
     29 H17         2.1994   -0.0407   24.9679 H           1 DKA       0.0230
     30 H18         3.0305   -0.0342   23.3971 H           1 DKA       0.0230
     31 H19         1.4523    0.7796   23.5780 H           1 DKA       0.0230
@<TRIPOS>BOND
     1     1     2  ar
     2     1     3   1
     3     1    12  ar
     4     3     4   1
     5     4     5   1
     6     5     6   1
     7     6     7   1
     8     7     8   1
     9     8     9   1
    10     9    10   1
    11    10    11   1
    12     3    13   1
    13     3    14   1
    14     4    15   1
    15     4    16   1
    16     5    17   1
    17     5    18   1
    18     6    19   1
    19     6    20   1
    20     7    21   1
    21     7    22   1
    22     8    23   1
    23     8    24   1
    24     9    25   1
    25     9    26   1
    26    10    27   1
    27    10    28   1
    28    11    29   1
    29    11    30   1
    30    11    31   1
@<TRIPOS>SUBSTRUCTURE
     1  DKA      1

