@<TRIPOS>MOLECULE
3u9q_ligand_002
    31    30
SMALL
GAST_HUCK
****
This file was generated by PARSER (from files_GN.cpp)

@<TRIPOS>ATOM
      1 C1          4.1191    3.1881   22.1203 C.2         1 DKA       0.0348
      2 O1          5.1482    4.0407   22.3537 O.co2       1 DKA      -0.5690
      3 C2          2.9455    3.1691   23.0233 C.3         1 DKA       0.0002
      4 C3          2.8468    1.8919   23.9079 C.3         1 DKA      -0.0414
      5 C4          2.0395    0.7170   23.3055 C.3         1 DKA      -0.0516
      6 C5          1.9129   -0.4903   24.2994 C.3         1 DKA      -0.0530
      7 C6          0.4941   -1.1103   24.3876 C.3         1 DKA      -0.0531
      8 C7          0.1478   -1.8193   25.7410 C.3         1 DKA      -0.0531
      9 C8         -0.6396   -3.1416   25.5435 C.3         1 DKA      -0.0533
     10 C9          0.2721   -4.3143   25.0701 C.3         1 DKA      -0.0559
     11 C10        -0.5390   -5.5121   24.5458 C.3         1 DKA      -0.0653
     12 O2          4.1019    2.5134   20.9373 O.co2       1 DKA      -0.5690
     13 H1          2.0334    3.3114   22.4344 H           1 DKA       0.0430
     14 H2          3.0195    4.0445   23.6883 H           1 DKA       0.0430
     15 H3          2.3587    2.2128   24.8436 H           1 DKA       0.0283
     16 H4          3.8651    1.5579   24.1543 H           1 DKA       0.0283
     17 H5          2.5247    0.3900   22.3876 H           1 DKA       0.0266
     18 H6          1.0495    1.0893   23.0163 H           1 DKA       0.0266
     19 H7          2.2325   -0.1702   25.2925 H           1 DKA       0.0265
     20 H8          2.6181   -1.2609   23.9925 H           1 DKA       0.0265
     21 H9          0.3980   -1.8078   23.5525 H           1 DKA       0.0265
     22 H10        -0.2652   -0.3416   24.2310 H           1 DKA       0.0265
     23 H11        -0.4587   -1.1543   26.3522 H           1 DKA       0.0265
     24 H12         1.0449   -2.0345   26.3316 H           1 DKA       0.0265
     25 H13        -1.4453   -2.9427   24.8213 H           1 DKA       0.0265
     26 H14        -1.1296   -3.4190   26.4857 H           1 DKA       0.0265
     27 H15         0.8991   -4.6351   25.9066 H           1 DKA       0.0263
     28 H16         0.9321   -3.9851   24.2622 H           1 DKA       0.0263
     29 H17         0.1355   -6.3119   24.2457 H           1 DKA       0.0230
     30 H18        -1.1249   -5.2128   23.6747 H           1 DKA       0.0230
     31 H19        -1.2131   -5.8912   25.3100 H           1 DKA       0.0230
@<TRIPOS>BOND
     1     1     2  ar
     2     1     3   1
     3     1    12  ar
     4     3     4   1
     5     4     5   1
     6     5     6   1
     7     6     7   1
     8     7     8   1
     9     8     9   1
    10     9    10   1
    11    10    11   1
    12     3    13   1
    13     3    14   1
    14     4    15   1
    15     4    16   1
    16     5    17   1
    17     5    18   1
    18     6    19   1
    19     6    20   1
    20     7    21   1
    21     7    22   1
    22     8    23   1
    23     8    24   1
    24     9    25   1
    25     9    26   1
    26    10    27   1
    27    10    28   1
    28    11    29   1
    29    11    30   1
    30    11    31   1
@<TRIPOS>SUBSTRUCTURE
     1  DKA      1

