@<TRIPOS>MOLECULE
3u9q_ligand_027
    31    30
SMALL
GAST_HUCK
****
This file was generated by PARSER (from files_GN.cpp)

@<TRIPOS>ATOM
      1 C1          1.1112    5.7870   23.1140 C.2         1 DKA       0.0348
      2 O1          2.0069    5.6816   24.1195 O.co2       1 DKA      -0.5690
      3 C2          1.5483    5.7526   21.7025 C.3         1 DKA       0.0002
      4 C3          1.7337    4.2987   21.1590 C.3         1 DKA      -0.0414
      5 C4          3.1987    3.8538   20.8555 C.3         1 DKA      -0.0516
      6 C5          4.1636    3.7111   22.0720 C.3         1 DKA      -0.0530
      7 C6          4.2677    2.3862   22.9024 C.3         1 DKA      -0.0531
      8 C7          3.2629    1.1903   22.7354 C.3         1 DKA      -0.0531
      9 C8          3.6689    0.1143   21.6809 C.3         1 DKA      -0.0533
     10 C9          2.9340   -1.2545   21.8191 C.3         1 DKA      -0.0559
     11 C10         1.4514   -1.2584   21.3830 C.3         1 DKA      -0.0653
     12 O2         -0.1866    6.0208   23.4233 O.co2       1 DKA      -0.5690
     13 H1          2.4667    6.3367   21.5998 H           1 DKA       0.0430
     14 H2          0.7839    6.2613   21.1056 H           1 DKA       0.0430
     15 H3          1.1953    4.2381   20.2095 H           1 DKA       0.0283
     16 H4          1.2604    3.5751   21.8259 H           1 DKA       0.0283
     17 H5          3.6216    4.6033   20.1689 H           1 DKA       0.0266
     18 H6          3.1786    2.9090   20.3086 H           1 DKA       0.0266
     19 H7          3.9586    4.5397   22.7566 H           1 DKA       0.0265
     20 H8          5.1699    3.9194   21.6856 H           1 DKA       0.0265
     21 H9          4.2209    2.6828   23.9573 H           1 DKA       0.0265
     22 H10         5.2778    1.9883   22.7674 H           1 DKA       0.0265
     23 H11         2.2639    1.5746   22.5218 H           1 DKA       0.0265
     24 H12         3.2080    0.6920   23.7106 H           1 DKA       0.0265
     25 H13         4.7357   -0.0866   21.7931 H           1 DKA       0.0265
     26 H14         3.5128    0.5137   20.6769 H           1 DKA       0.0265
     27 H15         3.0054   -1.6064   22.8536 H           1 DKA       0.0263
     28 H16         3.4649   -1.9808   21.1947 H           1 DKA       0.0263
     29 H17         1.0259   -2.2506   21.5590 H           1 DKA       0.0230
     30 H18         1.3728   -1.0310   20.3174 H           1 DKA       0.0230
     31 H19         0.8784   -0.5258   21.9536 H           1 DKA       0.0230
@<TRIPOS>BOND
     1     1     2  ar
     2     1     3   1
     3     1    12  ar
     4     3     4   1
     5     4     5   1
     6     5     6   1
     7     6     7   1
     8     7     8   1
     9     8     9   1
    10     9    10   1
    11    10    11   1
    12     3    13   1
    13     3    14   1
    14     4    15   1
    15     4    16   1
    16     5    17   1
    17     5    18   1
    18     6    19   1
    19     6    20   1
    20     7    21   1
    21     7    22   1
    22     8    23   1
    23     8    24   1
    24     9    25   1
    25     9    26   1
    26    10    27   1
    27    10    28   1
    28    11    29   1
    29    11    30   1
    30    11    31   1
@<TRIPOS>SUBSTRUCTURE
     1  DKA      1

