@<TRIPOS>MOLECULE
3u9q_ligand_012
    31    30
SMALL
GAST_HUCK
****
This file was generated by PARSER (from files_GN.cpp)

@<TRIPOS>ATOM
      1 C1          2.1883    5.8811   21.5441 C.2         1 DKA       0.0348
      2 O1          1.4591    5.2945   20.5636 O.co2       1 DKA      -0.5690
      3 C2          2.0950    5.4133   22.9421 C.3         1 DKA       0.0002
      4 C3          2.5167    3.9277   23.1287 C.3         1 DKA      -0.0414
      5 C4          3.9193    3.6183   22.5184 C.3         1 DKA      -0.0516
      6 C5          4.4970    2.2056   22.8017 C.3         1 DKA      -0.0530
      7 C6          3.9627    0.9540   22.0265 C.3         1 DKA      -0.0531
      8 C7          3.3460    1.1682   20.6110 C.3         1 DKA      -0.0531
      9 C8          3.6331    0.0183   19.5938 C.3         1 DKA      -0.0533
     10 C9          4.9074    0.2104   18.7212 C.3         1 DKA      -0.0559
     11 C10         4.8721    1.4673   17.8189 C.3         1 DKA      -0.0653
     12 O2          3.1110    6.8075   21.1887 O.co2       1 DKA      -0.5690
     13 H1          1.0609    5.5361   23.2643 H           1 DKA       0.0430
     14 H2          2.7193    6.0459   23.5759 H           1 DKA       0.0430
     15 H3          1.7630    3.2832   22.6697 H           1 DKA       0.0283
     16 H4          2.5453    3.7072   24.2021 H           1 DKA       0.0283
     17 H5          4.6313    4.3498   22.9271 H           1 DKA       0.0266
     18 H6          3.8763    3.7684   21.4276 H           1 DKA       0.0266
     19 H7          4.3815    2.0045   23.8745 H           1 DKA       0.0265
     20 H8          5.5755    2.2738   22.6106 H           1 DKA       0.0265
     21 H9          3.2041    0.4647   22.6525 H           1 DKA       0.0265
     22 H10         4.7969    0.2475   21.9557 H           1 DKA       0.0265
     23 H11         3.6889    2.1110   20.1790 H           1 DKA       0.0265
     24 H12         2.2575    1.2417   20.7249 H           1 DKA       0.0265
     25 H13         2.7721   -0.0731   18.9238 H           1 DKA       0.0265
     26 H14         3.7151   -0.9311   20.1408 H           1 DKA       0.0265
     27 H15         4.9984   -0.6647   18.0726 H           1 DKA       0.0263
     28 H16         5.7967    0.2458   19.3539 H           1 DKA       0.0263
     29 H17         5.6849    1.4301   17.0913 H           1 DKA       0.0230
     30 H18         4.9909    2.3780   18.4086 H           1 DKA       0.0230
     31 H19         3.9262    1.5227   17.2746 H           1 DKA       0.0230
@<TRIPOS>BOND
     1     1     2  ar
     2     1     3   1
     3     1    12  ar
     4     3     4   1
     5     4     5   1
     6     5     6   1
     7     6     7   1
     8     7     8   1
     9     8     9   1
    10     9    10   1
    11    10    11   1
    12     3    13   1
    13     3    14   1
    14     4    15   1
    15     4    16   1
    16     5    17   1
    17     5    18   1
    18     6    19   1
    19     6    20   1
    20     7    21   1
    21     7    22   1
    22     8    23   1
    23     8    24   1
    24     9    25   1
    25     9    26   1
    26    10    27   1
    27    10    28   1
    28    11    29   1
    29    11    30   1
    30    11    31   1
@<TRIPOS>SUBSTRUCTURE
     1  DKA      1

