@<TRIPOS>MOLECULE
3u9q_ligand_005
    31    30
SMALL
GAST_HUCK
****
This file was generated by PARSER (from files_GN.cpp)

@<TRIPOS>ATOM
      1 C1          1.2374   -1.8827   19.8094 C.2         1 DKA       0.0348
      2 O1          2.0165   -1.8283   18.7024 O.co2       1 DKA      -0.5690
      3 C2          1.7815   -1.5402   21.1370 C.3         1 DKA       0.0002
      4 C3          1.2912   -0.1457   21.6198 C.3         1 DKA      -0.0414
      5 C4          1.2495    0.0162   23.1630 C.3         1 DKA      -0.0516
      6 C5          2.4914    0.6721   23.8322 C.3         1 DKA      -0.0530
      7 C6          2.7164    2.1865   23.5272 C.3         1 DKA      -0.0531
      8 C7          3.9396    2.4999   22.6212 C.3         1 DKA      -0.0531
      9 C8          4.1818    4.0141   22.3490 C.3         1 DKA      -0.0533
     10 C9          2.9078    4.8739   22.0879 C.3         1 DKA      -0.0559
     11 C10         2.3811    5.6296   23.3294 C.3         1 DKA      -0.0653
     12 O2         -0.0431   -2.3048   19.6888 O.co2       1 DKA      -0.5690
     13 H1          2.8759   -1.5496   21.1037 H           1 DKA       0.0430
     14 H2          1.4567   -2.3111   21.8424 H           1 DKA       0.0430
     15 H3          0.2718    0.0138   21.2581 H           1 DKA       0.0283
     16 H4          1.9175    0.6383   21.1793 H           1 DKA       0.0283
     17 H5          1.0965   -0.9709   23.6083 H           1 DKA       0.0266
     18 H6          0.3657    0.6093   23.4094 H           1 DKA       0.0266
     19 H7          3.3836    0.0948   23.5824 H           1 DKA       0.0265
     20 H8          2.3499    0.5723   24.9126 H           1 DKA       0.0265
     21 H9          2.8698    2.7122   24.4762 H           1 DKA       0.0265
     22 H10         1.8119    2.6012   23.0700 H           1 DKA       0.0265
     23 H11         3.8347    1.9792   21.6648 H           1 DKA       0.0265
     24 H12         4.8370    2.1050   23.1100 H           1 DKA       0.0265
     25 H13         4.8173    4.0771   21.4587 H           1 DKA       0.0265
     26 H14         4.7585    4.4378   23.1728 H           1 DKA       0.0265
     27 H15         2.1050    4.2472   21.6866 H           1 DKA       0.0263
     28 H16         3.1374    5.6261   21.3284 H           1 DKA       0.0263
     29 H17         1.4514    6.1482   23.0805 H           1 DKA       0.0230
     30 H18         3.1108    6.3709   23.6620 H           1 DKA       0.0230
     31 H19         2.1811    4.9426   24.1534 H           1 DKA       0.0230
@<TRIPOS>BOND
     1     1     2  ar
     2     1     3   1
     3     1    12  ar
     4     3     4   1
     5     4     5   1
     6     5     6   1
     7     6     7   1
     8     7     8   1
     9     8     9   1
    10     9    10   1
    11    10    11   1
    12     3    13   1
    13     3    14   1
    14     4    15   1
    15     4    16   1
    16     5    17   1
    17     5    18   1
    18     6    19   1
    19     6    20   1
    20     7    21   1
    21     7    22   1
    22     8    23   1
    23     8    24   1
    24     9    25   1
    25     9    26   1
    26    10    27   1
    27    10    28   1
    28    11    29   1
    29    11    30   1
    30    11    31   1
@<TRIPOS>SUBSTRUCTURE
     1  DKA      1

