@<TRIPOS>MOLECULE
3u9q_ligand_030
    31    30
SMALL
GAST_HUCK
****
This file was generated by PARSER (from files_GN.cpp)

@<TRIPOS>ATOM
      1 C1          3.5451   -1.7092   18.9005 C.2         1 DKA       0.0348
      2 O1          2.3699   -1.0994   18.6106 O.co2       1 DKA      -0.5690
      3 C2          4.2977   -1.3385   20.1187 C.3         1 DKA       0.0002
      4 C3          5.7976   -1.0601   19.8385 C.3         1 DKA      -0.0414
      5 C4          6.6246   -0.7805   21.1264 C.3         1 DKA      -0.0516
      6 C5          8.1679   -0.8412   20.9547 C.3         1 DKA      -0.0530
      7 C6          8.6994   -0.4666   19.5419 C.3         1 DKA      -0.0531
      8 C7         10.1438   -0.9872   19.2905 C.3         1 DKA      -0.0531
      9 C8         10.5571   -1.1028   17.7906 C.3         1 DKA      -0.0533
     10 C9         10.1152   -2.3904   17.0288 C.3         1 DKA      -0.0559
     11 C10        10.6084   -3.7144   17.6533 C.3         1 DKA      -0.0653
     12 O2          3.8622   -2.8357   18.2160 O.co2       1 DKA      -0.5690
     13 H1          4.2080   -2.1565   20.8386 H           1 DKA       0.0430
     14 H2          3.8441   -0.4487   20.5614 H           1 DKA       0.0430
     15 H3          5.8857   -0.1886   19.1733 H           1 DKA       0.0283
     16 H4          6.2185   -1.9273   19.3152 H           1 DKA       0.0283
     17 H5          6.3510   -1.5160   21.8886 H           1 DKA       0.0266
     18 H6          6.3451    0.2071   21.5046 H           1 DKA       0.0266
     19 H7          8.5036   -1.8566   21.1902 H           1 DKA       0.0265
     20 H8          8.6107   -0.1689   21.6924 H           1 DKA       0.0265
     21 H9          8.6847    0.6239   19.4257 H           1 DKA       0.0265
     22 H10         8.0252   -0.8990   18.7894 H           1 DKA       0.0265
     23 H11        10.2606   -1.9639   19.7619 H           1 DKA       0.0265
     24 H12        10.8455   -0.2986   19.7776 H           1 DKA       0.0265
     25 H13        11.6470   -1.0539   17.7445 H           1 DKA       0.0265
     26 H14        10.1742   -0.2347   17.2499 H           1 DKA       0.0265
     27 H15        10.5152   -2.3265   16.0088 H           1 DKA       0.0263
     28 H16         9.0284   -2.4195   16.9387 H           1 DKA       0.0263
     29 H17        10.3651   -4.5532   16.9881 H           1 DKA       0.0230
     30 H18        10.1252   -3.8897   18.6207 H           1 DKA       0.0230
     31 H19        11.6927   -3.6852   17.7895 H           1 DKA       0.0230
@<TRIPOS>BOND
     1     1     2  ar
     2     1     3   1
     3     1    12  ar
     4     3     4   1
     5     4     5   1
     6     5     6   1
     7     6     7   1
     8     7     8   1
     9     8     9   1
    10     9    10   1
    11    10    11   1
    12     3    13   1
    13     3    14   1
    14     4    15   1
    15     4    16   1
    16     5    17   1
    17     5    18   1
    18     6    19   1
    19     6    20   1
    20     7    21   1
    21     7    22   1
    22     8    23   1
    23     8    24   1
    24     9    25   1
    25     9    26   1
    26    10    27   1
    27    10    28   1
    28    11    29   1
    29    11    30   1
    30    11    31   1
@<TRIPOS>SUBSTRUCTURE
     1  DKA      1

