@<TRIPOS>MOLECULE
3u9q_ligand_025
    31    30
SMALL
GAST_HUCK
****
This file was generated by PARSER (from files_GN.cpp)

@<TRIPOS>ATOM
      1 C1          0.4998   -2.9049   25.0468 C.2         1 DKA       0.0348
      2 O1          0.0006   -3.5426   23.9604 O.co2       1 DKA      -0.5690
      3 C2          0.5113   -1.4364   25.1271 C.3         1 DKA       0.0002
      4 C3          1.4991   -0.7539   24.1370 C.3         1 DKA      -0.0414
      5 C4          0.8497   -0.2346   22.8163 C.3         1 DKA      -0.0516
      6 C5          1.7887    0.6683   21.9707 C.3         1 DKA      -0.0530
      7 C6          1.3288    2.1474   21.8792 C.3         1 DKA      -0.0531
      8 C7          2.3603    3.0591   21.1558 C.3         1 DKA      -0.0531
      9 C8          1.9391    4.5436   21.0211 C.3         1 DKA      -0.0533
     10 C9          1.3566    5.2232   22.2960 C.3         1 DKA      -0.0559
     11 C10         2.4047    5.5670   23.3740 C.3         1 DKA      -0.0653
     12 O2          0.8328   -3.6555   26.1244 O.co2       1 DKA      -0.5690
     13 H1          0.7985   -1.1383   26.1393 H           1 DKA       0.0430
     14 H2         -0.5012   -1.0627   24.9481 H           1 DKA       0.0430
     15 H3          2.3033   -1.4565   23.8849 H           1 DKA       0.0283
     16 H4          1.9588    0.0968   24.6514 H           1 DKA       0.0283
     17 H5         -0.0634    0.3165   23.0564 H           1 DKA       0.0266
     18 H6          0.5641   -1.0984   22.2101 H           1 DKA       0.0266
     19 H7          1.8298    0.2570   20.9543 H           1 DKA       0.0265
     20 H8          2.8055    0.6205   22.3779 H           1 DKA       0.0265
     21 H9          1.1681    2.5454   22.8872 H           1 DKA       0.0265
     22 H10         0.3699    2.1827   21.3466 H           1 DKA       0.0265
     23 H11         2.5204    2.6788   20.1411 H           1 DKA       0.0265
     24 H12         3.3192    2.9878   21.6773 H           1 DKA       0.0265
     25 H13         1.1854    4.6201   20.2328 H           1 DKA       0.0265
     26 H14         2.8077    5.1227   20.6987 H           1 DKA       0.0265
     27 H15         0.5948    4.5820   22.7331 H           1 DKA       0.0263
     28 H16         0.8689    6.1509   21.9946 H           1 DKA       0.0263
     29 H17         1.9094    5.9921   24.2565 H           1 DKA       0.0230
     30 H18         3.1133    6.3067   22.9880 H           1 DKA       0.0230
     31 H19         2.9497    4.6728   23.6852 H           1 DKA       0.0230
@<TRIPOS>BOND
     1     1     2  ar
     2     1     3   1
     3     1    12  ar
     4     3     4   1
     5     4     5   1
     6     5     6   1
     7     6     7   1
     8     7     8   1
     9     8     9   1
    10     9    10   1
    11    10    11   1
    12     3    13   1
    13     3    14   1
    14     4    15   1
    15     4    16   1
    16     5    17   1
    17     5    18   1
    18     6    19   1
    19     6    20   1
    20     7    21   1
    21     7    22   1
    22     8    23   1
    23     8    24   1
    24     9    25   1
    25     9    26   1
    26    10    27   1
    27    10    28   1
    28    11    29   1
    29    11    30   1
    30    11    31   1
@<TRIPOS>SUBSTRUCTURE
     1  DKA      1

