@<TRIPOS>MOLECULE
3u9q_ligand_020
    31    30
SMALL
GAST_HUCK
****
This file was generated by PARSER (from files_GN.cpp)

@<TRIPOS>ATOM
      1 C1          5.5590   -3.2027   20.3268 C.2         1 DKA       0.0348
      2 O1          5.5861   -2.4531   19.1847 O.co2       1 DKA      -0.5690
      3 C2          5.2882   -2.5988   21.6478 C.3         1 DKA       0.0002
      4 C3          4.2378   -1.4436   21.6625 C.3         1 DKA      -0.0414
      5 C4          4.8531   -0.0056   21.6832 C.3         1 DKA      -0.0516
      6 C5          3.8061    1.0973   22.0433 C.3         1 DKA      -0.0530
      7 C6          4.4536    2.2880   22.8284 C.3         1 DKA      -0.0531
      8 C7          3.8585    3.6902   22.5398 C.3         1 DKA      -0.0531
      9 C8          2.4399    3.9440   23.1112 C.3         1 DKA      -0.0533
     10 C9          1.8253    5.2851   22.6083 C.3         1 DKA      -0.0559
     11 C10         1.5942    5.4062   21.0708 C.3         1 DKA      -0.0653
     12 O2          6.1908   -4.4027   20.2872 O.co2       1 DKA      -0.5690
     13 H1          6.2380   -2.2516   22.0648 H           1 DKA       0.0430
     14 H2          4.9132   -3.3999   22.3057 H           1 DKA       0.0430
     15 H3          3.6232   -1.5538   22.5649 H           1 DKA       0.0283
     16 H4          3.5756   -1.5449   20.7950 H           1 DKA       0.0283
     17 H5          5.3014    0.2272   20.7023 H           1 DKA       0.0266
     18 H6          5.6498    0.0030   22.4358 H           1 DKA       0.0266
     19 H7          3.0017    0.6760   22.6746 H           1 DKA       0.0265
     20 H8          3.3574    1.4684   21.1131 H           1 DKA       0.0265
     21 H9          5.5183    2.3585   22.5722 H           1 DKA       0.0265
     22 H10         4.3786    2.0820   23.9052 H           1 DKA       0.0265
     23 H11         3.8570    3.8618   21.4525 H           1 DKA       0.0265
     24 H12         4.5503    4.4189   22.9914 H           1 DKA       0.0265
     25 H13         2.4967    3.9893   24.2076 H           1 DKA       0.0265
     26 H14         1.7741    3.1116   22.8459 H           1 DKA       0.0265
     27 H15         2.4806    6.1076   22.9338 H           1 DKA       0.0263
     28 H16         0.8514    5.4261   23.0940 H           1 DKA       0.0263
     29 H17         1.1949    6.3980   20.8582 H           1 DKA       0.0230
     30 H18         0.9003    4.6179   20.7211 H           1 DKA       0.0230
     31 H19         2.5504    5.3251   20.5332 H           1 DKA       0.0230
@<TRIPOS>BOND
     1     1     2  ar
     2     1     3   1
     3     1    12  ar
     4     3     4   1
     5     4     5   1
     6     5     6   1
     7     6     7   1
     8     7     8   1
     9     8     9   1
    10     9    10   1
    11    10    11   1
    12     3    13   1
    13     3    14   1
    14     4    15   1
    15     4    16   1
    16     5    17   1
    17     5    18   1
    18     6    19   1
    19     6    20   1
    20     7    21   1
    21     7    22   1
    22     8    23   1
    23     8    24   1
    24     9    25   1
    25     9    26   1
    26    10    27   1
    27    10    28   1
    28    11    29   1
    29    11    30   1
    30    11    31   1
@<TRIPOS>SUBSTRUCTURE
     1  DKA      1

