@<TRIPOS>MOLECULE
3u9q_ligand_026
    31    30
SMALL
GAST_HUCK
****
This file was generated by PARSER (from files_GN.cpp)

@<TRIPOS>ATOM
      1 C1          1.7361    5.7553   23.3104 C.2         1 DKA       0.0348
      2 O1          1.9611    5.9717   24.6411 O.co2       1 DKA      -0.5690
      3 C2          2.6911    4.9910   22.4930 C.3         1 DKA       0.0002
      4 C3          2.8089    5.5617   21.0570 C.3         1 DKA      -0.0414
      5 C4          3.6906    4.7402   20.0901 C.3         1 DKA      -0.0516
      6 C5          3.3412    3.2345   20.0621 C.3         1 DKA      -0.0530
      7 C6          3.8476    2.4823   18.7930 C.3         1 DKA      -0.0531
      8 C7          4.0455    0.9616   19.0343 C.3         1 DKA      -0.0531
      9 C8          5.3380    0.3704   18.3923 C.3         1 DKA      -0.0533
     10 C9          5.8717   -0.9199   19.0758 C.3         1 DKA      -0.0559
     11 C10         6.7778   -0.6593   20.3074 C.3         1 DKA      -0.0653
     12 O2          0.4870    5.9691   22.8399 O.co2       1 DKA      -0.5690
     13 H1          2.3131    3.9596   22.4608 H           1 DKA       0.0430
     14 H2          3.6770    4.9936   22.9749 H           1 DKA       0.0430
     15 H3          3.2277    6.5727   21.1177 H           1 DKA       0.0283
     16 H4          1.8051    5.6587   20.6337 H           1 DKA       0.0283
     17 H5          4.7398    4.8557   20.3805 H           1 DKA       0.0266
     18 H6          3.5725    5.1528   19.0911 H           1 DKA       0.0266
     19 H7          2.2560    3.1020   20.1290 H           1 DKA       0.0265
     20 H8          3.7811    2.7863   20.9546 H           1 DKA       0.0265
     21 H9          4.7997    2.9317   18.4879 H           1 DKA       0.0265
     22 H10         3.1381    2.6310   17.9695 H           1 DKA       0.0265
     23 H11         3.1731    0.4151   18.6505 H           1 DKA       0.0265
     24 H12         4.0786    0.7796   20.1123 H           1 DKA       0.0265
     25 H13         6.1450    1.1157   18.4012 H           1 DKA       0.0265
     26 H14         5.1242    0.1422   17.3454 H           1 DKA       0.0265
     27 H15         6.4669   -1.4800   18.3480 H           1 DKA       0.0263
     28 H16         5.0334   -1.5565   19.3751 H           1 DKA       0.0263
     29 H17         7.1216   -1.6109   20.7242 H           1 DKA       0.0230
     30 H18         6.2420   -0.1278   21.0974 H           1 DKA       0.0230
     31 H19         7.6511   -0.0714   20.0243 H           1 DKA       0.0230
@<TRIPOS>BOND
     1     1     2  ar
     2     1     3   1
     3     1    12  ar
     4     3     4   1
     5     4     5   1
     6     5     6   1
     7     6     7   1
     8     7     8   1
     9     8     9   1
    10     9    10   1
    11    10    11   1
    12     3    13   1
    13     3    14   1
    14     4    15   1
    15     4    16   1
    16     5    17   1
    17     5    18   1
    18     6    19   1
    19     6    20   1
    20     7    21   1
    21     7    22   1
    22     8    23   1
    23     8    24   1
    24     9    25   1
    25     9    26   1
    26    10    27   1
    27    10    28   1
    28    11    29   1
    29    11    30   1
    30    11    31   1
@<TRIPOS>SUBSTRUCTURE
     1  DKA      1

