@<TRIPOS>MOLECULE
3u9q_ligand_015
    31    30
SMALL
GAST_HUCK
****
This file was generated by PARSER (from files_GN.cpp)

@<TRIPOS>ATOM
      1 C1          1.2216   -1.4976   24.3366 C.2         1 DKA       0.0348
      2 O1          1.4618   -2.7947   24.0236 O.co2       1 DKA      -0.5690
      3 C2          0.6194   -0.5888   23.3442 C.3         1 DKA       0.0002
      4 C3          1.5457    0.5894   22.9328 C.3         1 DKA      -0.0414
      5 C4          2.8844    0.1627   22.2756 C.3         1 DKA      -0.0516
      6 C5          3.7219    1.3345   21.6882 C.3         1 DKA      -0.0530
      7 C6          4.3497    2.3426   22.7114 C.3         1 DKA      -0.0531
      8 C7          3.9281    3.8302   22.5274 C.3         1 DKA      -0.0531
      9 C8          2.4869    4.1362   23.0254 C.3         1 DKA      -0.0533
     10 C9          1.9199    5.5163   22.5938 C.3         1 DKA      -0.0559
     11 C10         1.5473    5.6024   21.0943 C.3         1 DKA      -0.0653
     12 O2          1.5325   -1.0596   25.5752 O.co2       1 DKA      -0.5690
     13 H1         -0.3046   -0.1888   23.7688 H           1 DKA       0.0430
     14 H2          0.3490   -1.1559   22.4495 H           1 DKA       0.0430
     15 H3          1.7585    1.1931   23.8156 H           1 DKA       0.0283
     16 H4          0.9920    1.2144   22.2295 H           1 DKA       0.0283
     17 H5          2.6534   -0.5206   21.4533 H           1 DKA       0.0266
     18 H6          3.4863   -0.3874   23.0015 H           1 DKA       0.0266
     19 H7          3.1013    1.8716   20.9699 H           1 DKA       0.0265
     20 H8          4.5384    0.8931   21.1119 H           1 DKA       0.0265
     21 H9          5.4395    2.3085   22.6063 H           1 DKA       0.0265
     22 H10         4.1369    2.0368   23.7393 H           1 DKA       0.0265
     23 H11         4.0313    4.0977   21.4764 H           1 DKA       0.0265
     24 H12         4.6201    4.4642   23.0880 H           1 DKA       0.0265
     25 H13         2.4971    4.1030   24.1193 H           1 DKA       0.0265
     26 H14         1.7984    3.3607   22.6763 H           1 DKA       0.0265
     27 H15         2.6395    6.3038   22.8284 H           1 DKA       0.0263
     28 H16         1.0120    5.7120   23.1712 H           1 DKA       0.0263
     29 H17         0.9978    6.5237   20.8986 H           1 DKA       0.0230
     30 H18         0.9135    4.7621   20.8025 H           1 DKA       0.0230
     31 H19         2.4438    5.5979   20.4763 H           1 DKA       0.0230
@<TRIPOS>BOND
     1     1     2  ar
     2     1     3   1
     3     1    12  ar
     4     3     4   1
     5     4     5   1
     6     5     6   1
     7     6     7   1
     8     7     8   1
     9     8     9   1
    10     9    10   1
    11    10    11   1
    12     3    13   1
    13     3    14   1
    14     4    15   1
    15     4    16   1
    16     5    17   1
    17     5    18   1
    18     6    19   1
    19     6    20   1
    20     7    21   1
    21     7    22   1
    22     8    23   1
    23     8    24   1
    24     9    25   1
    25     9    26   1
    26    10    27   1
    27    10    28   1
    28    11    29   1
    29    11    30   1
    30    11    31   1
@<TRIPOS>SUBSTRUCTURE
     1  DKA      1

