@<TRIPOS>MOLECULE
3u9q_ligand_009
    31    30
SMALL
GAST_HUCK
****
This file was generated by PARSER (from files_GN.cpp)

@<TRIPOS>ATOM
      1 C1          1.4337   -2.0706   19.4049 C.2         1 DKA       0.0348
      2 O1          0.1072   -2.1431   19.6763 O.co2       1 DKA      -0.5690
      3 C2          2.3903   -1.3019   20.2438 C.3         1 DKA       0.0002
      4 C3          1.7952   -0.5319   21.4703 C.3         1 DKA      -0.0414
      5 C4          2.4499   -0.9465   22.8220 C.3         1 DKA      -0.0516
      6 C5          1.6659   -0.4990   24.0815 C.3         1 DKA      -0.0530
      7 C6          0.2000   -1.0424   24.1632 C.3         1 DKA      -0.0531
      8 C7         -0.1538   -1.7757   25.4903 C.3         1 DKA      -0.0531
      9 C8          0.4977   -3.1853   25.6084 C.3         1 DKA      -0.0533
     10 C9          0.0541   -3.9973   26.8557 C.3         1 DKA      -0.0559
     11 C10         0.0915   -3.1940   28.1783 C.3         1 DKA      -0.0653
     12 O2          1.9083   -2.7564   18.3434 O.co2       1 DKA      -0.5690
     13 H1          2.8760   -0.5692   19.5751 H           1 DKA       0.0430
     14 H2          3.1724   -1.9979   20.5827 H           1 DKA       0.0430
     15 H3          0.7133   -0.6674   21.5300 H           1 DKA       0.0283
     16 H4          1.9691    0.5393   21.3193 H           1 DKA       0.0283
     17 H5          3.4474   -0.4957   22.8638 H           1 DKA       0.0266
     18 H6          2.5808   -2.0405   22.8522 H           1 DKA       0.0266
     19 H7          1.6509    0.6011   24.1111 H           1 DKA       0.0265
     20 H8          2.2430   -0.8274   24.9479 H           1 DKA       0.0265
     21 H9          0.0042   -1.7298   23.3445 H           1 DKA       0.0265
     22 H10        -0.4891   -0.1957   24.0353 H           1 DKA       0.0265
     23 H11        -1.2435   -1.8947   25.5335 H           1 DKA       0.0265
     24 H12         0.1499   -1.1491   26.3323 H           1 DKA       0.0265
     25 H13         1.5880   -3.0851   25.6265 H           1 DKA       0.0265
     26 H14         0.2349   -3.7724   24.7206 H           1 DKA       0.0265
     27 H15         0.7215   -4.8557   26.9545 H           1 DKA       0.0263
     28 H16        -0.9632   -4.3787   26.6961 H           1 DKA       0.0263
     29 H17        -0.0614   -3.8575   29.0355 H           1 DKA       0.0230
     30 H18        -0.7004   -2.4398   28.1808 H           1 DKA       0.0230
     31 H19         1.0541   -2.6934   28.2867 H           1 DKA       0.0230
@<TRIPOS>BOND
     1     1     2  ar
     2     1     3   1
     3     1    12  ar
     4     3     4   1
     5     4     5   1
     6     5     6   1
     7     6     7   1
     8     7     8   1
     9     8     9   1
    10     9    10   1
    11    10    11   1
    12     3    13   1
    13     3    14   1
    14     4    15   1
    15     4    16   1
    16     5    17   1
    17     5    18   1
    18     6    19   1
    19     6    20   1
    20     7    21   1
    21     7    22   1
    22     8    23   1
    23     8    24   1
    24     9    25   1
    25     9    26   1
    26    10    27   1
    27    10    28   1
    28    11    29   1
    29    11    30   1
    30    11    31   1
@<TRIPOS>SUBSTRUCTURE
     1  DKA      1

