@<TRIPOS>MOLECULE
3u9q_ligand_010
    31    30
SMALL
GAST_HUCK
****
This file was generated by PARSER (from files_GN.cpp)

@<TRIPOS>ATOM
      1 C1          2.2952    5.9746   21.5423 C.2         1 DKA       0.0348
      2 O1          1.4259    5.4067   20.6764 O.co2       1 DKA      -0.5690
      3 C2          2.2915    5.6061   22.9682 C.3         1 DKA       0.0002
      4 C3          2.5419    4.0921   23.2092 C.3         1 DKA      -0.0414
      5 C4          3.8753    3.5646   22.6151 C.3         1 DKA      -0.0516
      6 C5          4.3011    2.1437   23.0880 C.3         1 DKA      -0.0530
      7 C6          3.3517    0.9588   22.7392 C.3         1 DKA      -0.0531
      8 C7          2.1727    0.7180   23.7407 C.3         1 DKA      -0.0531
      9 C8          1.9012   -0.7767   24.1220 C.3         1 DKA      -0.0533
     10 C9          0.4527   -1.2968   23.8803 C.3         1 DKA      -0.0559
     11 C10        -0.1533   -2.0340   25.1001 C.3         1 DKA      -0.0653
     12 O2          3.1673    6.8947   21.0767 O.co2       1 DKA      -0.5690
     13 H1          1.3244    5.8881   23.3916 H           1 DKA       0.0430
     14 H2          3.0510    6.1853   23.4960 H           1 DKA       0.0430
     15 H3          1.7135    3.5314   22.7769 H           1 DKA       0.0283
     16 H4          2.5334    3.9097   24.2833 H           1 DKA       0.0283
     17 H5          4.6675    4.2617   22.8986 H           1 DKA       0.0266
     18 H6          3.8068    3.5878   21.5251 H           1 DKA       0.0266
     19 H7          4.4675    2.1669   24.1692 H           1 DKA       0.0265
     20 H8          5.2672    1.9298   22.6188 H           1 DKA       0.0265
     21 H9          3.9687    0.0622   22.6652 H           1 DKA       0.0265
     22 H10         2.9398    1.1376   21.7370 H           1 DKA       0.0265
     23 H11         1.2749    1.1669   23.3049 H           1 DKA       0.0265
     24 H12         2.3724    1.2590   24.6754 H           1 DKA       0.0265
     25 H13         2.1583   -0.8922   25.1845 H           1 DKA       0.0265
     26 H14         2.5714   -1.4431   23.5686 H           1 DKA       0.0265
     27 H15         0.4661   -1.9862   23.0249 H           1 DKA       0.0263
     28 H16        -0.2224   -0.4739   23.6337 H           1 DKA       0.0263
     29 H17        -1.1256   -2.4552   24.8380 H           1 DKA       0.0230
     30 H18        -0.2937   -1.3457   25.9350 H           1 DKA       0.0230
     31 H19         0.4930   -2.8453   25.4253 H           1 DKA       0.0230
@<TRIPOS>BOND
     1     1     2  ar
     2     1     3   1
     3     1    12  ar
     4     3     4   1
     5     4     5   1
     6     5     6   1
     7     6     7   1
     8     7     8   1
     9     8     9   1
    10     9    10   1
    11    10    11   1
    12     3    13   1
    13     3    14   1
    14     4    15   1
    15     4    16   1
    16     5    17   1
    17     5    18   1
    18     6    19   1
    19     6    20   1
    20     7    21   1
    21     7    22   1
    22     8    23   1
    23     8    24   1
    24     9    25   1
    25     9    26   1
    26    10    27   1
    27    10    28   1
    28    11    29   1
    29    11    30   1
    30    11    31   1
@<TRIPOS>SUBSTRUCTURE
     1  DKA      1

