@<TRIPOS>MOLECULE
3u9q_ligand_029
    31    30
SMALL
GAST_HUCK
****
This file was generated by PARSER (from files_GN.cpp)

@<TRIPOS>ATOM
      1 C1          1.9262    2.2091   22.3944 C.2         1 DKA       0.0348
      2 O1          1.3346    1.1529   21.7782 O.co2       1 DKA      -0.5690
      3 C2          1.2575    3.5245   22.3396 C.3         1 DKA       0.0002
      4 C3          1.9263    4.6821   23.1389 C.3         1 DKA      -0.0414
      5 C4          3.1803    5.3492   22.5122 C.3         1 DKA      -0.0516
      6 C5          3.0507    5.7249   21.0031 C.3         1 DKA      -0.0530
      7 C6          3.8813    4.8556   20.0189 C.3         1 DKA      -0.0531
      8 C7          3.4639    3.3634   19.9536 C.3         1 DKA      -0.0531
      9 C8          3.9428    2.6390   18.6702 C.3         1 DKA      -0.0533
     10 C9          3.9371    1.0901   18.7826 C.3         1 DKA      -0.0559
     11 C10         5.1266    0.4436   18.0337 C.3         1 DKA      -0.0653
     12 O2          3.1187    2.0094   23.0020 O.co2       1 DKA      -0.5690
     13 H1          0.2481    3.3846   22.7200 H           1 DKA       0.0430
     14 H2          1.1597    3.8154   21.2930 H           1 DKA       0.0430
     15 H3          2.2098    4.2974   24.1239 H           1 DKA       0.0283
     16 H4          1.1707    5.4563   23.3051 H           1 DKA       0.0283
     17 H5          4.0555    4.7218   22.6869 H           1 DKA       0.0266
     18 H6          3.3470    6.2729   23.0767 H           1 DKA       0.0266
     19 H7          3.3892    6.7565   20.8722 H           1 DKA       0.0265
     20 H8          2.0042    5.7039   20.6856 H           1 DKA       0.0265
     21 H9          4.9393    4.9123   20.2998 H           1 DKA       0.0265
     22 H10         3.7788    5.2862   19.0217 H           1 DKA       0.0265
     23 H11         2.3693    3.2931   20.0048 H           1 DKA       0.0265
     24 H12         3.8869    2.8450   20.8152 H           1 DKA       0.0265
     25 H13         4.9501    2.9867   18.4328 H           1 DKA       0.0265
     26 H14         3.2876    2.9224   17.8436 H           1 DKA       0.0265
     27 H15         3.0008    0.6997   18.3718 H           1 DKA       0.0263
     28 H16         3.9988    0.7839   19.8314 H           1 DKA       0.0263
     29 H17         5.0357   -0.6488   18.0692 H           1 DKA       0.0230
     30 H18         6.0688    0.7285   18.5162 H           1 DKA       0.0230
     31 H19         5.1487    0.7683   16.9921 H           1 DKA       0.0230
@<TRIPOS>BOND
     1     1     2  ar
     2     1     3   1
     3     1    12  ar
     4     3     4   1
     5     4     5   1
     6     5     6   1
     7     6     7   1
     8     7     8   1
     9     8     9   1
    10     9    10   1
    11    10    11   1
    12     3    13   1
    13     3    14   1
    14     4    15   1
    15     4    16   1
    16     5    17   1
    17     5    18   1
    18     6    19   1
    19     6    20   1
    20     7    21   1
    21     7    22   1
    22     8    23   1
    23     8    24   1
    24     9    25   1
    25     9    26   1
    26    10    27   1
    27    10    28   1
    28    11    29   1
    29    11    30   1
    30    11    31   1
@<TRIPOS>SUBSTRUCTURE
     1  DKA      1

