@<TRIPOS>MOLECULE
3u9q_ligand_013
    31    30
SMALL
GAST_HUCK
****
This file was generated by PARSER (from files_GN.cpp)

@<TRIPOS>ATOM
      1 C1         -0.6744   -5.2418   24.0052 C.2         1 DKA       0.0348
      2 O1         -0.1932   -4.3832   23.0751 O.co2       1 DKA      -0.5690
      3 C2         -0.0988   -5.2489   25.3688 C.3         1 DKA       0.0002
      4 C3         -0.6004   -4.0900   26.2858 C.3         1 DKA      -0.0414
      5 C4         -0.8996   -2.7092   25.6107 C.3         1 DKA      -0.0516
      6 C5          0.1865   -1.5978   25.7583 C.3         1 DKA      -0.0530
      7 C6          1.5989   -1.8836   25.1801 C.3         1 DKA      -0.0531
      8 C7          1.6515   -2.1263   23.6370 C.3         1 DKA      -0.0531
      9 C8          2.4042   -1.0503   22.8049 C.3         1 DKA      -0.0533
     10 C9          1.9217    0.4213   22.9423 C.3         1 DKA      -0.0559
     11 C10         0.4743    0.6762   22.4539 C.3         1 DKA      -0.0653
     12 O2         -1.4684   -6.2540   23.5741 O.co2       1 DKA      -0.5690
     13 H1          0.9957   -5.2130   25.2897 H           1 DKA       0.0430
     14 H2         -0.3581   -6.1998   25.8539 H           1 DKA       0.0430
     15 H3          0.1273   -3.9508   27.0979 H           1 DKA       0.0283
     16 H4         -1.5321   -4.4404   26.7500 H           1 DKA       0.0283
     17 H5         -1.8050   -2.3129   26.0838 H           1 DKA       0.0266
     18 H6         -1.1476   -2.8424   24.5558 H           1 DKA       0.0266
     19 H7          0.2990   -1.3677   26.8274 H           1 DKA       0.0265
     20 H8         -0.2032   -0.6976   25.2733 H           1 DKA       0.0265
     21 H9          2.0135   -2.7490   25.6997 H           1 DKA       0.0265
     22 H10         2.2397   -1.0410   25.4406 H           1 DKA       0.0265
     23 H11         0.6481   -2.2322   23.2202 H           1 DKA       0.0265
     24 H12         2.1644   -3.0777   23.4633 H           1 DKA       0.0265
     25 H13         2.3482   -1.3287   21.7444 H           1 DKA       0.0265
     26 H14         3.4598   -1.0796   23.0864 H           1 DKA       0.0265
     27 H15         2.5878    1.0523   22.3431 H           1 DKA       0.0263
     28 H16         2.0102    0.7513   23.9806 H           1 DKA       0.0263
     29 H17         0.2725    1.7516   22.4424 H           1 DKA       0.0230
     30 H18        -0.2462    0.1951   23.1161 H           1 DKA       0.0230
     31 H19         0.3446    0.2868   21.4403 H           1 DKA       0.0230
@<TRIPOS>BOND
     1     1     2  ar
     2     1     3   1
     3     1    12  ar
     4     3     4   1
     5     4     5   1
     6     5     6   1
     7     6     7   1
     8     7     8   1
     9     8     9   1
    10     9    10   1
    11    10    11   1
    12     3    13   1
    13     3    14   1
    14     4    15   1
    15     4    16   1
    16     5    17   1
    17     5    18   1
    18     6    19   1
    19     6    20   1
    20     7    21   1
    21     7    22   1
    22     8    23   1
    23     8    24   1
    24     9    25   1
    25     9    26   1
    26    10    27   1
    27    10    28   1
    28    11    29   1
    29    11    30   1
    30    11    31   1
@<TRIPOS>SUBSTRUCTURE
     1  DKA      1

