@<TRIPOS>MOLECULE
3udh_ligand_042
    27    29
SMALL
GAST_HUCK
****
This file was generated by PARSER (from files_GN.cpp)

@<TRIPOS>ATOM
      1 C1         16.2875   41.5138   43.7781 C.3         1 MOL       0.0781
      2 C2         17.0924   41.8907   42.5966 C.ar        1 MOL      -0.0219
      3 C3         15.3387   42.6255   43.7620 C.2         1 MOL       0.2144
      4 C4         15.6131   40.1272   43.6778 C.3         1 MOL      -0.0294
      5 C5         17.0981   41.4123   45.0938 C.3         1 MOL      -0.0531
      6 C6         16.5918   43.0697   42.0472 C.ar        1 MOL       0.0939
      7 C7         18.2069   41.2564   42.0112 C.ar        1 MOL      -0.0552
      8 N1         15.5481   43.4661   42.7733 N.am        1 MOL      -0.2200
      9 O1         14.4275   42.7824   44.5617 O.2         1 MOL      -0.3196
     10 C8         15.3910   39.7210   45.1479 C.3         1 MOL      -0.0449
     11 N2         16.3403   40.4991   45.9647 N.4         1 MOL       0.2177
     12 C9         17.1715   43.6537   40.9076 C.ar        1 MOL      -0.0098
     13 C10        18.8023   41.8294   40.8681 C.ar        1 MOL      -0.0486
     14 C11        18.2860   43.0230   40.3178 C.ar        1 MOL      -0.0475
     15 H1         16.2830   39.4032   43.2041 H           1 MOL       0.0183
     16 H2         14.6748   40.1512   43.1157 H           1 MOL       0.0183
     17 H3         17.2389   42.3807   45.5824 H           1 MOL       0.0667
     18 H4         18.0821   40.9686   44.9137 H           1 MOL       0.0667
     19 H5         18.5804   40.3926   42.4085 H           1 MOL       0.0771
     20 H6         15.0131   44.2550   42.5901 H           1 MOL       0.2404
     21 H7         15.5545   38.6502   45.2907 H           1 MOL       0.0802
     22 H8         14.3730   39.9673   45.4589 H           1 MOL       0.0802
     23 H9         15.8203   41.0430   46.6568 H           1 MOL       0.2001
     24 H10        16.9864   39.8693   46.4460 H           1 MOL       0.2001
     25 H11        16.7891   44.5162   40.5161 H           1 MOL       0.0591
     26 H12        19.6093   41.3766   40.4361 H           1 MOL       0.0588
     27 H13        18.7229   43.4314   39.4879 H           1 MOL       0.0799
@<TRIPOS>BOND
     1     1     2   1
     2     1     3   1
     3     1     4   1
     4     1     5   1
     5     2     6  ar
     6     2     7  ar
     7     3     8  am
     8     3     9   2
     9     4    10   1
    10     5    11   1
    11     6     8   1
    12     6    12  ar
    13     7    13  ar
    14    10    11   1
    15    12    14  ar
    16    13    14  ar
    17     4    15   1
    18     4    16   1
    19     5    17   1
    20     5    18   1
    21     7    19   1
    22     8    20   1
    23    10    21   1
    24    10    22   1
    25    11    23   1
    26    11    24   1
    27    12    25   1
    28    13    26   1
    29    14    27   1
@<TRIPOS>SUBSTRUCTURE
     1  MOL      1

