@<TRIPOS>MOLECULE
3udh_ligand_043
    27    29
SMALL
GAST_HUCK
****
This file was generated by PARSER (from files_GN.cpp)

@<TRIPOS>ATOM
      1 C1         20.0831   35.9426   41.5390 C.3         1 MOL       0.0781
      2 C2         20.2501   35.6090   42.9737 C.ar        1 MOL      -0.0219
      3 C3         18.9214   35.0992   41.2628 C.2         1 MOL       0.2144
      4 C4         19.8490   37.4626   41.2996 C.3         1 MOL      -0.0294
      5 C5         21.3217   35.5831   40.6689 C.3         1 MOL      -0.0531
      6 C6         19.2575   34.7128   43.3697 C.ar        1 MOL       0.0939
      7 C7         21.2136   36.0549   43.8997 C.ar        1 MOL      -0.0552
      8 N1         18.4797   34.4551   42.3210 N.am        1 MOL      -0.2200
      9 O1         18.3959   34.9776   40.1662 O.2         1 MOL      -0.3196
     10 C8         20.8694   37.8513   40.2170 C.3         1 MOL      -0.0449
     11 N2         21.9493   36.8652   40.3370 N.4         1 MOL       0.2177
     12 C9         19.2025   34.2130   44.6838 C.ar        1 MOL      -0.0098
     13 C10        21.1652   35.5721   45.2224 C.ar        1 MOL      -0.0486
     14 C11        20.1705   34.6510   45.6122 C.ar        1 MOL      -0.0475
     15 H1         20.0444   38.0507   42.1989 H           1 MOL       0.0183
     16 H2         18.8327   37.6931   40.9706 H           1 MOL       0.0183
     17 H3         21.0358   35.1001   39.7295 H           1 MOL       0.0667
     18 H4         22.0348   34.9338   41.1831 H           1 MOL       0.0667
     19 H5         21.9382   36.7184   43.6170 H           1 MOL       0.0771
     20 H6         17.7183   33.8515   42.3272 H           1 MOL       0.2404
     21 H7         21.2541   38.8631   40.3666 H           1 MOL       0.0802
     22 H8         20.4146   37.7856   39.2255 H           1 MOL       0.0802
     23 H9         22.4609   36.7838   39.4555 H           1 MOL       0.2001
     24 H10        22.5817   37.1412   41.0926 H           1 MOL       0.2001
     25 H11        18.4813   33.5415   44.9547 H           1 MOL       0.0591
     26 H12        21.8578   35.8897   45.9033 H           1 MOL       0.0588
     27 H13        20.1505   34.2952   46.5701 H           1 MOL       0.0799
@<TRIPOS>BOND
     1     1     2   1
     2     1     3   1
     3     1     4   1
     4     1     5   1
     5     2     6  ar
     6     2     7  ar
     7     3     8  am
     8     3     9   2
     9     4    10   1
    10     5    11   1
    11     6     8   1
    12     6    12  ar
    13     7    13  ar
    14    10    11   1
    15    12    14  ar
    16    13    14  ar
    17     4    15   1
    18     4    16   1
    19     5    17   1
    20     5    18   1
    21     7    19   1
    22     8    20   1
    23    10    21   1
    24    10    22   1
    25    11    23   1
    26    11    24   1
    27    12    25   1
    28    13    26   1
    29    14    27   1
@<TRIPOS>SUBSTRUCTURE
     1  MOL      1

