@<TRIPOS>MOLECULE
3udh_ligand_057
    27    29
SMALL
GAST_HUCK
****
This file was generated by PARSER (from files_GN.cpp)

@<TRIPOS>ATOM
      1 C1         26.5955   28.2482   44.7929 C.3         1 MOL       0.0781
      2 C2         26.2763   28.0699   46.2261 C.ar        1 MOL      -0.0219
      3 C3         25.3841   27.6593   44.2215 C.2         1 MOL       0.2144
      4 C4         26.8390   29.7115   44.3524 C.3         1 MOL      -0.0294
      5 C5         27.8954   27.5428   44.3353 C.3         1 MOL      -0.0531
      6 C6         25.0339   27.4473   46.3526 C.ar        1 MOL       0.0939
      7 C7         27.0112   28.4197   47.3781 C.ar        1 MOL      -0.0552
      8 N1         24.5419   27.2271   45.1334 N.am        1 MOL      -0.2200
      9 O1         25.1451   27.5725   43.0257 O.2         1 MOL      -0.3196
     10 C8         27.6982   29.5751   43.0776 C.3         1 MOL      -0.0449
     11 N2         28.2940   28.2265   43.0946 N.4         1 MOL       0.2177
     12 C9         24.4825   27.1569   47.6120 C.ar        1 MOL      -0.0098
     13 C10        26.4753   28.1278   48.6498 C.ar        1 MOL      -0.0486
     14 C11        25.2153   27.5016   48.7656 C.ar        1 MOL      -0.0475
     15 H1         27.4105   30.2537   45.1145 H           1 MOL       0.0183
     16 H2         25.9104   30.2599   44.1625 H           1 MOL       0.0183
     17 H3         27.7606   26.4727   44.1575 H           1 MOL       0.0667
     18 H4         28.6938   27.6778   45.0712 H           1 MOL       0.0667
     19 H5         27.9222   28.8760   47.2955 H           1 MOL       0.0771
     20 H6         23.6902   26.8030   44.9464 H           1 MOL       0.2404
     21 H7         28.4819   30.3352   43.0486 H           1 MOL       0.0802
     22 H8         27.0737   29.6762   42.1860 H           1 MOL       0.0802
     23 H9         27.9445   27.6953   42.2935 H           1 MOL       0.2001
     24 H10        29.3147   28.2889   43.0362 H           1 MOL       0.2001
     25 H11        23.5700   26.7051   47.6914 H           1 MOL       0.0591
     26 H12        26.9982   28.3755   49.4932 H           1 MOL       0.0588
     27 H13        24.8325   27.2959   49.6911 H           1 MOL       0.0799
@<TRIPOS>BOND
     1     1     2   1
     2     1     3   1
     3     1     4   1
     4     1     5   1
     5     2     6  ar
     6     2     7  ar
     7     3     8  am
     8     3     9   2
     9     4    10   1
    10     5    11   1
    11     6     8   1
    12     6    12  ar
    13     7    13  ar
    14    10    11   1
    15    12    14  ar
    16    13    14  ar
    17     4    15   1
    18     4    16   1
    19     5    17   1
    20     5    18   1
    21     7    19   1
    22     8    20   1
    23    10    21   1
    24    10    22   1
    25    11    23   1
    26    11    24   1
    27    12    25   1
    28    13    26   1
    29    14    27   1
@<TRIPOS>SUBSTRUCTURE
     1  MOL      1

