@<TRIPOS>MOLECULE
3udh_ligand_027
    27    29
SMALL
GAST_HUCK
****
This file was generated by PARSER (from files_GN.cpp)

@<TRIPOS>ATOM
      1 C1         17.5735   35.3369   44.7704 C.3         1 MOL       0.0781
      2 C2         17.9534   34.2467   43.8456 C.ar        1 MOL      -0.0219
      3 C3         17.2920   36.3742   43.7746 C.2         1 MOL       0.2144
      4 C4         16.3695   35.0109   45.6863 C.3         1 MOL      -0.0294
      5 C5         18.6765   35.7288   45.7869 C.3         1 MOL      -0.0531
      6 C6         17.8606   34.6942   42.5277 C.ar        1 MOL       0.0939
      7 C7         18.3742   32.9271   44.1142 C.ar        1 MOL      -0.0552
      8 N1         17.4653   35.9662   42.5351 N.am        1 MOL      -0.2200
      9 O1         16.9359   37.5149   44.0341 O.2         1 MOL      -0.3196
     10 C8         16.5587   35.9443   46.8984 C.3         1 MOL      -0.0449
     11 N2         17.9837   36.3181   46.9446 N.4         1 MOL       0.2177
     12 C9         18.1632   33.8547   41.4412 C.ar        1 MOL      -0.0098
     13 C10        18.6987   32.0777   43.0372 C.ar        1 MOL      -0.0486
     14 C11        18.5787   32.5337   41.7065 C.ar        1 MOL      -0.0475
     15 H1         16.4148   33.9728   46.0279 H           1 MOL       0.0183
     16 H2         15.4034   35.1703   45.1975 H           1 MOL       0.0183
     17 H3         19.4024   36.4343   45.3749 H           1 MOL       0.0667
     18 H4         19.2154   34.8452   46.1393 H           1 MOL       0.0667
     19 H5         18.4503   32.5894   45.0764 H           1 MOL       0.0771
     20 H6         17.3370   36.5106   41.7380 H           1 MOL       0.2404
     21 H7         16.2688   35.4481   47.8277 H           1 MOL       0.0802
     22 H8         15.9587   36.8491   46.7774 H           1 MOL       0.0802
     23 H9         18.0662   37.3371   46.9089 H           1 MOL       0.2001
     24 H10        18.4103   35.9694   47.8092 H           1 MOL       0.2001
     25 H11        18.0899   34.1977   40.4802 H           1 MOL       0.0591
     26 H12        19.0276   31.1286   43.2209 H           1 MOL       0.0588
     27 H13        18.8000   31.9025   40.9333 H           1 MOL       0.0799
@<TRIPOS>BOND
     1     1     2   1
     2     1     3   1
     3     1     4   1
     4     1     5   1
     5     2     6  ar
     6     2     7  ar
     7     3     8  am
     8     3     9   2
     9     4    10   1
    10     5    11   1
    11     6     8   1
    12     6    12  ar
    13     7    13  ar
    14    10    11   1
    15    12    14  ar
    16    13    14  ar
    17     4    15   1
    18     4    16   1
    19     5    17   1
    20     5    18   1
    21     7    19   1
    22     8    20   1
    23    10    21   1
    24    10    22   1
    25    11    23   1
    26    11    24   1
    27    12    25   1
    28    13    26   1
    29    14    27   1
@<TRIPOS>SUBSTRUCTURE
     1  MOL      1

