@<TRIPOS>MOLECULE
3udh_ligand_022
    27    29
SMALL
GAST_HUCK
****
This file was generated by PARSER (from files_GN.cpp)

@<TRIPOS>ATOM
      1 C1         28.2109   30.4875   43.4131 C.3         1 MOL       0.0781
      2 C2         28.3433   30.1663   44.8509 C.ar        1 MOL      -0.0219
      3 C3         26.8007   30.1359   43.2357 C.2         1 MOL       0.2144
      4 C4         28.5283   31.9554   43.0438 C.3         1 MOL      -0.0294
      5 C5         29.1629   29.6954   42.4874 C.3         1 MOL      -0.0531
      6 C6         27.1169   29.7211   45.3422 C.ar        1 MOL       0.0939
      7 C7         29.4616   30.2395   45.7082 C.ar        1 MOL      -0.0552
      8 N1         26.2315   29.7222   44.3454 N.am        1 MOL      -0.2200
      9 O1         26.1884   30.1922   42.1787 O.2         1 MOL      -0.3196
     10 C8         28.9139   31.8906   41.5512 C.3         1 MOL      -0.0449
     11 N2         29.2408   30.4846   41.2502 N.4         1 MOL       0.2177
     12 C9         26.9545   29.3429   46.6864 C.ar        1 MOL      -0.0098
     13 C10        29.3190   29.8575   47.0588 C.ar        1 MOL      -0.0486
     14 C11        28.0702   29.4139   47.5461 C.ar        1 MOL      -0.0475
     15 H1         29.3848   32.3173   43.6199 H           1 MOL       0.0183
     16 H2         27.6849   32.6313   43.2155 H           1 MOL       0.0183
     17 H3         28.8071   28.6819   42.2775 H           1 MOL       0.0667
     18 H4         30.1659   29.6320   42.9192 H           1 MOL       0.0667
     19 H5         30.3661   30.5610   45.3574 H           1 MOL       0.0771
     20 H6         25.3062   29.4389   44.4252 H           1 MOL       0.2404
     21 H7         29.7705   32.5330   41.3370 H           1 MOL       0.0802
     22 H8         28.0743   32.1993   40.9247 H           1 MOL       0.0802
     23 H9         28.5639   30.1148   40.5796 H           1 MOL       0.2001
     24 H10        30.1754   30.4100   40.8460 H           1 MOL       0.2001
     25 H11        26.0486   29.0192   47.0306 H           1 MOL       0.0591
     26 H12        30.1237   29.9028   47.6872 H           1 MOL       0.0588
     27 H13        27.9751   29.1375   48.5252 H           1 MOL       0.0799
@<TRIPOS>BOND
     1     1     2   1
     2     1     3   1
     3     1     4   1
     4     1     5   1
     5     2     6  ar
     6     2     7  ar
     7     3     8  am
     8     3     9   2
     9     4    10   1
    10     5    11   1
    11     6     8   1
    12     6    12  ar
    13     7    13  ar
    14    10    11   1
    15    12    14  ar
    16    13    14  ar
    17     4    15   1
    18     4    16   1
    19     5    17   1
    20     5    18   1
    21     7    19   1
    22     8    20   1
    23    10    21   1
    24    10    22   1
    25    11    23   1
    26    11    24   1
    27    12    25   1
    28    13    26   1
    29    14    27   1
@<TRIPOS>SUBSTRUCTURE
     1  MOL      1

