@<TRIPOS>MOLECULE
3udh_ligand_016
    27    29
SMALL
GAST_HUCK
****
This file was generated by PARSER (from files_GN.cpp)

@<TRIPOS>ATOM
      1 C1         17.1484   40.0776   42.7573 C.3         1 MOL       0.0781
      2 C2         17.5472   38.8604   43.5009 C.ar        1 MOL      -0.0219
      3 C3         17.5044   41.0744   43.7594 C.2         1 MOL       0.2144
      4 C4         17.8775   40.2700   41.4041 C.3         1 MOL      -0.0294
      5 C5         15.6549   40.1223   42.3589 C.3         1 MOL      -0.0531
      6 C6         18.0504   39.2229   44.7504 C.ar        1 MOL       0.0939
      7 C7         17.4822   37.4973   43.1377 C.ar        1 MOL      -0.0552
      8 N1         18.0022   40.5498   44.8555 N.am        1 MOL      -0.2200
      9 O1         17.3664   42.2834   43.6244 O.2         1 MOL      -0.3196
     10 C8         16.9222   41.1726   40.6034 C.3         1 MOL      -0.0449
     11 N2         15.5813   41.0089   41.1809 N.4         1 MOL       0.2177
     12 C9         18.5075   38.2632   45.6702 C.ar        1 MOL      -0.0098
     13 C10        17.9376   36.5222   44.0493 C.ar        1 MOL      -0.0486
     14 C11        18.4506   36.9024   45.3088 C.ar        1 MOL      -0.0475
     15 H1         17.9933   39.3132   40.8811 H           1 MOL       0.0183
     16 H2         18.8658   40.7276   41.5111 H           1 MOL       0.0183
     17 H3         15.0037   40.4741   43.1606 H           1 MOL       0.0667
     18 H4         15.3072   39.1360   42.0401 H           1 MOL       0.0667
     19 H5         17.1098   37.2220   42.2265 H           1 MOL       0.0771
     20 H6         18.3184   41.0449   45.6262 H           1 MOL       0.2404
     21 H7         16.8943   40.8900   39.5507 H           1 MOL       0.0802
     22 H8         17.2236   42.2185   40.6808 H           1 MOL       0.0802
     23 H9         15.1922   41.9263   41.4114 H           1 MOL       0.2001
     24 H10        14.9798   40.5668   40.4898 H           1 MOL       0.2001
     25 H11        18.8668   38.5476   46.5845 H           1 MOL       0.0591
     26 H12        17.8932   35.5338   43.7968 H           1 MOL       0.0588
     27 H13        18.7768   36.1911   45.9624 H           1 MOL       0.0799
@<TRIPOS>BOND
     1     1     2   1
     2     1     3   1
     3     1     4   1
     4     1     5   1
     5     2     6  ar
     6     2     7  ar
     7     3     8  am
     8     3     9   2
     9     4    10   1
    10     5    11   1
    11     6     8   1
    12     6    12  ar
    13     7    13  ar
    14    10    11   1
    15    12    14  ar
    16    13    14  ar
    17     4    15   1
    18     4    16   1
    19     5    17   1
    20     5    18   1
    21     7    19   1
    22     8    20   1
    23    10    21   1
    24    10    22   1
    25    11    23   1
    26    11    24   1
    27    12    25   1
    28    13    26   1
    29    14    27   1
@<TRIPOS>SUBSTRUCTURE
     1  MOL      1

