@<TRIPOS>MOLECULE
3udh_ligand_066
    27    29
SMALL
GAST_HUCK
****
This file was generated by PARSER (from files_GN.cpp)

@<TRIPOS>ATOM
      1 C1         16.6205   37.5025   46.3502 C.3         1 MOL       0.0781
      2 C2         15.9461   38.7654   45.9645 C.ar        1 MOL      -0.0219
      3 C3         17.9886   38.0100   46.4258 C.2         1 MOL       0.2144
      4 C4         16.0942   36.8979   47.6864 C.3         1 MOL      -0.0294
      5 C5         16.4546   36.3639   45.3037 C.3         1 MOL      -0.0531
      6 C6         16.8879   39.7867   45.8524 C.ar        1 MOL       0.0939
      7 C7         14.5840   39.0372   45.7212 C.ar        1 MOL      -0.0552
      8 N1         18.0877   39.2909   46.1483 N.am        1 MOL      -0.2200
      9 O1         18.9664   37.3396   46.7250 O.2         1 MOL      -0.3196
     10 C8         15.7345   35.4391   47.3423 C.3         1 MOL      -0.0449
     11 N2         15.4768   35.4439   45.8973 N.4         1 MOL       0.2177
     12 C9         16.5258   41.0895   45.4677 C.ar        1 MOL      -0.0098
     13 C10        14.2006   40.3381   45.3325 C.ar        1 MOL      -0.0486
     14 C11        15.1679   41.3581   45.1954 C.ar        1 MOL      -0.0475
     15 H1         15.1956   37.4147   48.0354 H           1 MOL       0.0183
     16 H2         16.8346   36.9259   48.4921 H           1 MOL       0.0183
     17 H3         17.3888   35.8150   45.1466 H           1 MOL       0.0667
     18 H4         16.1031   36.7208   44.3336 H           1 MOL       0.0667
     19 H5         13.8840   38.2982   45.8163 H           1 MOL       0.0771
     20 H6         18.9092   39.8048   46.1672 H           1 MOL       0.2404
     21 H7         14.8549   35.0964   47.8885 H           1 MOL       0.0802
     22 H8         16.5739   34.7727   47.5624 H           1 MOL       0.0802
     23 H9         15.5719   34.5055   45.5041 H           1 MOL       0.2001
     24 H10        14.5334   35.7989   45.7246 H           1 MOL       0.2001
     25 H11        17.2294   41.8243   45.3813 H           1 MOL       0.0591
     26 H12        13.2161   40.5438   45.1466 H           1 MOL       0.0588
     27 H13        14.8829   42.2963   44.8995 H           1 MOL       0.0799
@<TRIPOS>BOND
     1     1     2   1
     2     1     3   1
     3     1     4   1
     4     1     5   1
     5     2     6  ar
     6     2     7  ar
     7     3     8  am
     8     3     9   2
     9     4    10   1
    10     5    11   1
    11     6     8   1
    12     6    12  ar
    13     7    13  ar
    14    10    11   1
    15    12    14  ar
    16    13    14  ar
    17     4    15   1
    18     4    16   1
    19     5    17   1
    20     5    18   1
    21     7    19   1
    22     8    20   1
    23    10    21   1
    24    10    22   1
    25    11    23   1
    26    11    24   1
    27    12    25   1
    28    13    26   1
    29    14    27   1
@<TRIPOS>SUBSTRUCTURE
     1  MOL      1

