@<TRIPOS>MOLECULE
3udh_ligand_007
    27    29
SMALL
GAST_HUCK
****
This file was generated by PARSER (from files_GN.cpp)

@<TRIPOS>ATOM
      1 C1         24.3187   36.1383   41.6883 C.3         1 MOL       0.0781
      2 C2         24.6946   35.0502   42.6211 C.ar        1 MOL      -0.0219
      3 C3         23.3540   36.8283   42.5419 C.2         1 MOL       0.2144
      4 C4         25.5298   37.0130   41.2511 C.3         1 MOL      -0.0294
      5 C5         23.6897   35.6174   40.3651 C.3         1 MOL      -0.0531
      6 C6         23.9925   35.1954   43.8146 C.ar        1 MOL       0.0939
      7 C7         25.6080   33.9845   42.4663 C.ar        1 MOL      -0.0552
      8 N1         23.2050   36.2621   43.7196 N.am        1 MOL      -0.2200
      9 O1         22.7344   37.8302   42.2227 O.2         1 MOL      -0.3196
     10 C8         25.5065   36.9816   39.7106 C.3         1 MOL      -0.0449
     11 N2         24.7245   35.7959   39.3396 N.4         1 MOL       0.2177
     12 C9         24.1633   34.2993   44.8863 C.ar        1 MOL      -0.0098
     13 C10        25.7966   33.0813   43.5315 C.ar        1 MOL      -0.0486
     14 C11        25.0777   33.2397   44.7368 C.ar        1 MOL      -0.0475
     15 H1         26.4796   36.6030   41.6121 H           1 MOL       0.0183
     16 H2         25.4564   38.0443   41.6072 H           1 MOL       0.0183
     17 H3         22.8102   36.1943   40.0686 H           1 MOL       0.0667
     18 H4         23.4067   34.5629   40.4130 H           1 MOL       0.0667
     19 H5         26.1280   33.8736   41.5938 H           1 MOL       0.0771
     20 H6         22.6021   36.5776   44.4132 H           1 MOL       0.2404
     21 H7         26.5179   36.9227   39.2986 H           1 MOL       0.0802
     22 H8         25.0145   37.8781   39.3189 H           1 MOL       0.0802
     23 H9         24.2926   35.9317   38.4281 H           1 MOL       0.2001
     24 H10        25.3160   34.9608   39.3083 H           1 MOL       0.2001
     25 H11        23.6389   34.4194   45.7551 H           1 MOL       0.0591
     26 H12        26.4591   32.3103   43.4312 H           1 MOL       0.0588
     27 H13        25.2242   32.5801   45.5060 H           1 MOL       0.0799
@<TRIPOS>BOND
     1     1     2   1
     2     1     3   1
     3     1     4   1
     4     1     5   1
     5     2     6  ar
     6     2     7  ar
     7     3     8  am
     8     3     9   2
     9     4    10   1
    10     5    11   1
    11     6     8   1
    12     6    12  ar
    13     7    13  ar
    14    10    11   1
    15    12    14  ar
    16    13    14  ar
    17     4    15   1
    18     4    16   1
    19     5    17   1
    20     5    18   1
    21     7    19   1
    22     8    20   1
    23    10    21   1
    24    10    22   1
    25    11    23   1
    26    11    24   1
    27    12    25   1
    28    13    26   1
    29    14    27   1
@<TRIPOS>SUBSTRUCTURE
     1  MOL      1

