@<TRIPOS>MOLECULE
3udh_ligand_012
    27    29
SMALL
GAST_HUCK
****
This file was generated by PARSER (from files_GN.cpp)

@<TRIPOS>ATOM
      1 C1         25.8320   28.5366   44.8419 C.3         1 MOL       0.0781
      2 C2         27.0121   27.8106   45.3673 C.ar        1 MOL      -0.0219
      3 C3         25.9001   28.0761   43.4562 C.2         1 MOL       0.2144
      4 C4         24.5038   28.1723   45.5702 C.3         1 MOL      -0.0294
      5 C5         25.9608   30.0800   44.9881 C.3         1 MOL      -0.0531
      6 C6         27.6098   27.0768   44.3425 C.ar        1 MOL       0.0939
      7 C7         27.5650   27.7915   46.6639 C.ar        1 MOL      -0.0552
      8 N1         26.9123   27.2693   43.2242 N.am        1 MOL      -0.2200
      9 O1         25.1107   28.3911   42.5780 O.2         1 MOL      -0.3196
     10 C8         23.9035   29.5284   45.9841 C.3         1 MOL      -0.0449
     11 N2         25.0532   30.4344   46.0853 N.4         1 MOL       0.2177
     12 C9         28.7617   26.3025   44.5659 C.ar        1 MOL      -0.0098
     13 C10        28.7203   27.0198   46.9069 C.ar        1 MOL      -0.0486
     14 C11        29.3170   26.2810   45.8619 C.ar        1 MOL      -0.0475
     15 H1         24.6847   27.5726   46.4675 H           1 MOL       0.0183
     16 H2         23.8022   27.6229   44.9361 H           1 MOL       0.0183
     17 H3         25.6312   30.6037   44.0851 H           1 MOL       0.0667
     18 H4         26.9761   30.4091   45.2238 H           1 MOL       0.0667
     19 H5         27.1370   28.3313   47.4183 H           1 MOL       0.0771
     20 H6         27.1208   26.8718   42.3643 H           1 MOL       0.2404
     21 H7         23.3765   29.4672   46.9392 H           1 MOL       0.0802
     22 H8         23.2142   29.8952   45.2179 H           1 MOL       0.0802
     23 H9         24.7574   31.4113   46.0155 H           1 MOL       0.2001
     24 H10        25.5268   30.2794   46.9787 H           1 MOL       0.2001
     25 H11        29.1869   25.7694   43.8043 H           1 MOL       0.0591
     26 H12        29.1287   26.9965   47.8439 H           1 MOL       0.0588
     27 H13        30.1558   25.7275   46.0455 H           1 MOL       0.0799
@<TRIPOS>BOND
     1     1     2   1
     2     1     3   1
     3     1     4   1
     4     1     5   1
     5     2     6  ar
     6     2     7  ar
     7     3     8  am
     8     3     9   2
     9     4    10   1
    10     5    11   1
    11     6     8   1
    12     6    12  ar
    13     7    13  ar
    14    10    11   1
    15    12    14  ar
    16    13    14  ar
    17     4    15   1
    18     4    16   1
    19     5    17   1
    20     5    18   1
    21     7    19   1
    22     8    20   1
    23    10    21   1
    24    10    22   1
    25    11    23   1
    26    11    24   1
    27    12    25   1
    28    13    26   1
    29    14    27   1
@<TRIPOS>SUBSTRUCTURE
     1  MOL      1

