@<TRIPOS>MOLECULE
3udh_ligand_091
    27    29
SMALL
GAST_HUCK
****
This file was generated by PARSER (from files_GN.cpp)

@<TRIPOS>ATOM
      1 C1         32.5733   31.7922   43.9457 C.3         1 MOL       0.0781
      2 C2         31.2426   31.1778   44.1494 C.ar        1 MOL      -0.0219
      3 C3         32.7818   31.4116   42.5481 C.2         1 MOL       0.2144
      4 C4         32.6290   33.3227   44.1771 C.3         1 MOL      -0.0294
      5 C5         33.6755   31.2614   44.8927 C.3         1 MOL      -0.0531
      6 C6         30.8284   30.5631   42.9677 C.ar        1 MOL       0.0939
      7 C7         30.4162   31.1347   45.2917 C.ar        1 MOL      -0.0552
      8 N1         31.7739   30.7333   42.0452 N.am        1 MOL      -0.2200
      9 O1         33.7782   31.6743   41.8891 O.2         1 MOL      -0.3196
     10 C8         34.0906   33.5953   44.5963 C.3         1 MOL      -0.0449
     11 N2         34.7235   32.2912   44.8602 N.4         1 MOL       0.2177
     12 C9         29.5965   29.8927   42.8761 C.ar        1 MOL      -0.0098
     13 C10        29.1778   30.4623   45.2197 C.ar        1 MOL      -0.0486
     14 C11        28.7691   29.8456   44.0168 C.ar        1 MOL      -0.0475
     15 H1         31.9621   33.6139   44.9943 H           1 MOL       0.0183
     16 H2         32.3509   33.8961   43.2873 H           1 MOL       0.0183
     17 H3         34.0754   30.2930   44.5808 H           1 MOL       0.0667
     18 H4         33.3057   31.1745   45.9183 H           1 MOL       0.0667
     19 H5         30.7080   31.5830   46.1626 H           1 MOL       0.0771
     20 H6         31.7221   30.3984   41.1366 H           1 MOL       0.2404
     21 H7         34.1297   34.2141   45.4960 H           1 MOL       0.0802
     22 H8         34.6365   34.1003   43.7965 H           1 MOL       0.0802
     23 H9         35.3752   32.0793   44.1018 H           1 MOL       0.2001
     24 H10        35.2317   32.3111   45.7470 H           1 MOL       0.2001
     25 H11        29.3089   29.4475   42.0018 H           1 MOL       0.0591
     26 H12        28.5716   30.4248   46.0424 H           1 MOL       0.0588
     27 H13        27.8689   29.3628   43.9722 H           1 MOL       0.0799
@<TRIPOS>BOND
     1     1     2   1
     2     1     3   1
     3     1     4   1
     4     1     5   1
     5     2     6  ar
     6     2     7  ar
     7     3     8  am
     8     3     9   2
     9     4    10   1
    10     5    11   1
    11     6     8   1
    12     6    12  ar
    13     7    13  ar
    14    10    11   1
    15    12    14  ar
    16    13    14  ar
    17     4    15   1
    18     4    16   1
    19     5    17   1
    20     5    18   1
    21     7    19   1
    22     8    20   1
    23    10    21   1
    24    10    22   1
    25    11    23   1
    26    11    24   1
    27    12    25   1
    28    13    26   1
    29    14    27   1
@<TRIPOS>SUBSTRUCTURE
     1  MOL      1

