@<TRIPOS>MOLECULE
3udh_ligand_006
    27    29
SMALL
GAST_HUCK
****
This file was generated by PARSER (from files_GN.cpp)

@<TRIPOS>ATOM
      1 C1         16.9040   40.0569   43.7472 C.3         1 MOL       0.0781
      2 C2         17.7570   38.8663   43.9678 C.ar        1 MOL      -0.0219
      3 C3         16.4048   39.7171   42.4160 C.2         1 MOL       0.2144
      4 C4         15.7893   40.2266   44.8257 C.3         1 MOL      -0.0294
      5 C5         17.6982   41.3958   43.7859 C.3         1 MOL      -0.0531
      6 C6         17.6862   38.0285   42.8542 C.ar        1 MOL       0.0939
      7 C7         18.5597   38.5025   45.0700 C.ar        1 MOL      -0.0552
      8 N1         16.8742   38.5782   41.9567 N.am        1 MOL      -0.2200
      9 O1         15.6231   40.3976   41.7670 O.2         1 MOL      -0.3196
     10 C8         15.9792   41.6533   45.3744 C.3         1 MOL      -0.0449
     11 N2         17.3735   42.0033   45.0816 N.4         1 MOL       0.2177
     12 C9         18.3997   36.8210   42.7878 C.ar        1 MOL      -0.0098
     13 C10        19.2800   37.2899   45.0232 C.ar        1 MOL      -0.0486
     14 C11        19.2027   36.4552   43.8876 C.ar        1 MOL      -0.0475
     15 H1         15.9054   39.5067   45.6442 H           1 MOL       0.0183
     16 H2         14.7826   40.1092   44.4177 H           1 MOL       0.0183
     17 H3         17.3772   42.0792   42.9940 H           1 MOL       0.0667
     18 H4         18.7786   41.2549   43.7004 H           1 MOL       0.0667
     19 H5         18.6180   39.1073   45.8907 H           1 MOL       0.0771
     20 H6         16.6871   38.1978   41.0842 H           1 MOL       0.2404
     21 H7         15.7912   41.7030   46.4484 H           1 MOL       0.0802
     22 H8         15.3119   42.3531   44.8608 H           1 MOL       0.0802
     23 H9         17.4893   43.0190   45.0433 H           1 MOL       0.2001
     24 H10        17.9848   41.6142   45.8016 H           1 MOL       0.2001
     25 H11        18.3328   36.2179   41.9646 H           1 MOL       0.0591
     26 H12        19.8644   37.0169   45.8135 H           1 MOL       0.0588
     27 H13        19.7321   35.5783   43.8626 H           1 MOL       0.0799
@<TRIPOS>BOND
     1     1     2   1
     2     1     3   1
     3     1     4   1
     4     1     5   1
     5     2     6  ar
     6     2     7  ar
     7     3     8  am
     8     3     9   2
     9     4    10   1
    10     5    11   1
    11     6     8   1
    12     6    12  ar
    13     7    13  ar
    14    10    11   1
    15    12    14  ar
    16    13    14  ar
    17     4    15   1
    18     4    16   1
    19     5    17   1
    20     5    18   1
    21     7    19   1
    22     8    20   1
    23    10    21   1
    24    10    22   1
    25    11    23   1
    26    11    24   1
    27    12    25   1
    28    13    26   1
    29    14    27   1
@<TRIPOS>SUBSTRUCTURE
     1  MOL      1

