@<TRIPOS>MOLECULE
3udh_ligand_044
    27    29
SMALL
GAST_HUCK
****
This file was generated by PARSER (from files_GN.cpp)

@<TRIPOS>ATOM
      1 C1         25.5496   36.8115   40.3978 C.3         1 MOL       0.0781
      2 C2         26.3203   35.9640   39.4594 C.ar        1 MOL      -0.0219
      3 C3         26.6484   37.1911   41.2853 C.2         1 MOL       0.2144
      4 C4         24.8595   38.0292   39.7168 C.3         1 MOL      -0.0294
      5 C5         24.3928   36.0445   41.0956 C.3         1 MOL      -0.0531
      6 C6         27.6666   35.9546   39.8228 C.ar        1 MOL       0.0939
      7 C7         25.8822   35.2192   38.3456 C.ar        1 MOL      -0.0552
      8 N1         27.8132   36.7085   40.9097 N.am        1 MOL      -0.2200
      9 O1         26.5352   37.9184   42.2598 O.2         1 MOL      -0.3196
     10 C8         23.4011   37.9799   40.2044 C.3         1 MOL      -0.0449
     11 N2         23.1677   36.5555   40.4652 N.4         1 MOL       0.2177
     12 C9         28.6169   35.2250   39.0868 C.ar        1 MOL      -0.0098
     13 C10        26.8174   34.4627   37.6112 C.ar        1 MOL      -0.0486
     14 C11        28.1811   34.4726   37.9773 C.ar        1 MOL      -0.0475
     15 H1         24.8680   37.9296   38.6280 H           1 MOL       0.0183
     16 H2         25.3197   38.9895   39.9725 H           1 MOL       0.0183
     17 H3         24.3500   36.2660   42.1687 H           1 MOL       0.0667
     18 H4         24.4530   34.9600   40.9711 H           1 MOL       0.0667
     19 H5         24.8963   35.2270   38.0753 H           1 MOL       0.0771
     20 H6         28.6585   36.8778   41.3617 H           1 MOL       0.2404
     21 H7         22.7058   38.3532   39.4477 H           1 MOL       0.0802
     22 H8         23.2735   38.5571   41.1247 H           1 MOL       0.0802
     23 H9         22.3503   36.4222   41.0658 H           1 MOL       0.2001
     24 H10        23.0179   36.0943   39.5638 H           1 MOL       0.2001
     25 H11        29.6012   35.2390   39.3516 H           1 MOL       0.0591
     26 H12        26.5090   33.9144   36.8086 H           1 MOL       0.0588
     27 H13        28.8577   33.9315   37.4321 H           1 MOL       0.0799
@<TRIPOS>BOND
     1     1     2   1
     2     1     3   1
     3     1     4   1
     4     1     5   1
     5     2     6  ar
     6     2     7  ar
     7     3     8  am
     8     3     9   2
     9     4    10   1
    10     5    11   1
    11     6     8   1
    12     6    12  ar
    13     7    13  ar
    14    10    11   1
    15    12    14  ar
    16    13    14  ar
    17     4    15   1
    18     4    16   1
    19     5    17   1
    20     5    18   1
    21     7    19   1
    22     8    20   1
    23    10    21   1
    24    10    22   1
    25    11    23   1
    26    11    24   1
    27    12    25   1
    28    13    26   1
    29    14    27   1
@<TRIPOS>SUBSTRUCTURE
     1  MOL      1

