@<TRIPOS>MOLECULE
3udh_ligand_061
    27    29
SMALL
GAST_HUCK
****
This file was generated by PARSER (from files_GN.cpp)

@<TRIPOS>ATOM
      1 C1         26.2799   37.0024   42.2890 C.3         1 MOL       0.0781
      2 C2         27.3836   36.0576   42.5593 C.ar        1 MOL      -0.0219
      3 C3         26.5715   37.9884   43.3275 C.2         1 MOL       0.2144
      4 C4         26.2754   37.6018   40.8627 C.3         1 MOL      -0.0294
      5 C5         24.8578   36.4023   42.4081 C.3         1 MOL      -0.0531
      6 C6         28.1482   36.5270   43.6254 C.ar        1 MOL       0.0939
      7 C7         27.7316   34.8442   41.9270 C.ar        1 MOL      -0.0552
      8 N1         27.6210   37.6750   44.0479 N.am        1 MOL      -0.2200
      9 O1         25.9244   39.0033   43.5452 O.2         1 MOL      -0.3196
     10 C8         24.8125   38.0390   40.6498 C.3         1 MOL      -0.0449
     11 N2         23.9892   37.2893   41.6168 N.4         1 MOL       0.2177
     12 C9         29.2684   35.8266   44.1004 C.ar        1 MOL      -0.0098
     13 C10        28.8527   34.1242   42.3950 C.ar        1 MOL      -0.0486
     14 C11        29.6175   34.6139   43.4764 C.ar        1 MOL      -0.0475
     15 H1         26.5300   36.8364   40.1209 H           1 MOL       0.0183
     16 H2         26.9749   38.4363   40.7512 H           1 MOL       0.0183
     17 H3         24.5095   36.3419   43.4421 H           1 MOL       0.0667
     18 H4         24.8124   35.4010   41.9656 H           1 MOL       0.0667
     19 H5         27.1789   34.4870   41.1467 H           1 MOL       0.0771
     20 H6         27.9614   38.1990   44.7926 H           1 MOL       0.2404
     21 H7         24.4851   37.8343   39.6283 H           1 MOL       0.0802
     22 H8         24.6963   39.1075   40.8505 H           1 MOL       0.0802
     23 H9         23.5254   37.9516   42.2432 H           1 MOL       0.2001
     24 H10        23.2818   36.7371   41.1264 H           1 MOL       0.2001
     25 H11        29.8147   36.1911   44.8844 H           1 MOL       0.0591
     26 H12        29.1151   33.2444   41.9447 H           1 MOL       0.0588
     27 H13        30.4235   34.0838   43.8123 H           1 MOL       0.0799
@<TRIPOS>BOND
     1     1     2   1
     2     1     3   1
     3     1     4   1
     4     1     5   1
     5     2     6  ar
     6     2     7  ar
     7     3     8  am
     8     3     9   2
     9     4    10   1
    10     5    11   1
    11     6     8   1
    12     6    12  ar
    13     7    13  ar
    14    10    11   1
    15    12    14  ar
    16    13    14  ar
    17     4    15   1
    18     4    16   1
    19     5    17   1
    20     5    18   1
    21     7    19   1
    22     8    20   1
    23    10    21   1
    24    10    22   1
    25    11    23   1
    26    11    24   1
    27    12    25   1
    28    13    26   1
    29    14    27   1
@<TRIPOS>SUBSTRUCTURE
     1  MOL      1

