@<TRIPOS>MOLECULE
3udh_ligand_046
    27    29
SMALL
GAST_HUCK
****
This file was generated by PARSER (from files_GN.cpp)

@<TRIPOS>ATOM
      1 C1         33.3867   37.0077   47.1349 C.3         1 MOL       0.0781
      2 C2         32.1763   36.6183   46.3747 C.ar        1 MOL      -0.0219
      3 C3         32.9135   36.6809   48.4774 C.2         1 MOL       0.2144
      4 C4         34.6672   36.2320   46.7033 C.3         1 MOL      -0.0294
      5 C5         33.7452   38.5101   46.9645 C.3         1 MOL      -0.0531
      6 C6         31.2011   36.1573   47.2572 C.ar        1 MOL       0.0939
      7 C7         31.9081   36.6715   44.9908 C.ar        1 MOL      -0.0552
      8 N1         31.6853   36.2152   48.4963 N.am        1 MOL      -0.2200
      9 O1         33.5699   36.8148   49.5001 O.2         1 MOL      -0.3196
     10 C8         35.7067   37.3296   46.4223 C.3         1 MOL      -0.0449
     11 N2         34.9128   38.5168   46.0813 N.4         1 MOL       0.2177
     12 C9         29.9422   35.7315   46.8052 C.ar        1 MOL      -0.0098
     13 C10        30.6502   36.2432   44.5177 C.ar        1 MOL      -0.0486
     14 C11        29.6716   35.7738   45.4212 C.ar        1 MOL      -0.0475
     15 H1         34.5036   35.6556   45.7879 H           1 MOL       0.0183
     16 H2         35.0372   35.5475   47.4724 H           1 MOL       0.0183
     17 H3         34.0290   38.9760   47.9133 H           1 MOL       0.0667
     18 H4         32.9418   39.1007   46.5180 H           1 MOL       0.0667
     19 H5         32.6137   37.0176   44.3379 H           1 MOL       0.0771
     20 H6         31.2017   35.9525   49.2955 H           1 MOL       0.2404
     21 H7         36.3757   37.0567   45.6033 H           1 MOL       0.0802
     22 H8         36.3036   37.5347   47.3165 H           1 MOL       0.0802
     23 H9         35.4576   39.3675   46.2234 H           1 MOL       0.2001
     24 H10        34.5952   38.4649   45.1094 H           1 MOL       0.2001
     25 H11        29.2386   35.4120   47.4725 H           1 MOL       0.0591
     26 H12        30.4431   36.2812   43.5169 H           1 MOL       0.0588
     27 H13        28.7576   35.4809   45.0703 H           1 MOL       0.0799
@<TRIPOS>BOND
     1     1     2   1
     2     1     3   1
     3     1     4   1
     4     1     5   1
     5     2     6  ar
     6     2     7  ar
     7     3     8  am
     8     3     9   2
     9     4    10   1
    10     5    11   1
    11     6     8   1
    12     6    12  ar
    13     7    13  ar
    14    10    11   1
    15    12    14  ar
    16    13    14  ar
    17     4    15   1
    18     4    16   1
    19     5    17   1
    20     5    18   1
    21     7    19   1
    22     8    20   1
    23    10    21   1
    24    10    22   1
    25    11    23   1
    26    11    24   1
    27    12    25   1
    28    13    26   1
    29    14    27   1
@<TRIPOS>SUBSTRUCTURE
     1  MOL      1

