@<TRIPOS>MOLECULE
3udh_ligand_028
    27    29
SMALL
GAST_HUCK
****
This file was generated by PARSER (from files_GN.cpp)

@<TRIPOS>ATOM
      1 C1         25.2629   31.4464   43.6945 C.3         1 MOL       0.0781
      2 C2         24.9704   30.1367   44.3149 C.ar        1 MOL      -0.0219
      3 C3         25.3198   32.2551   44.9084 C.2         1 MOL       0.2144
      4 C4         26.5672   31.4911   42.8643 C.3         1 MOL      -0.0294
      5 C5         24.1963   31.9294   42.6837 C.3         1 MOL      -0.0531
      6 C6         24.8926   30.2827   45.6990 C.ar        1 MOL       0.0939
      7 C7         24.7782   28.8721   43.7238 C.ar        1 MOL      -0.0552
      8 N1         25.1112   31.5619   46.0062 N.am        1 MOL      -0.2200
      9 O1         25.5259   33.4602   44.9273 O.2         1 MOL      -0.3196
     10 C8         26.3425   32.6595   41.8857 C.3         1 MOL      -0.0449
     11 N2         24.8882   32.8622   41.7814 N.4         1 MOL       0.2177
     12 C9         24.6228   29.1878   46.5401 C.ar        1 MOL      -0.0098
     13 C10        24.5103   27.7631   44.5509 C.ar        1 MOL      -0.0486
     14 C11        24.4393   27.9196   45.9532 C.ar        1 MOL      -0.0475
     15 H1         26.6948   30.5662   42.2925 H           1 MOL       0.0183
     16 H2         27.4588   31.6460   43.4781 H           1 MOL       0.0183
     17 H3         23.3415   32.4164   43.1608 H           1 MOL       0.0667
     18 H4         23.8322   31.0954   42.0809 H           1 MOL       0.0667
     19 H5         24.8348   28.7567   42.7089 H           1 MOL       0.0771
     20 H6         25.1109   31.9287   46.9045 H           1 MOL       0.2404
     21 H7         26.7659   32.4364   40.9025 H           1 MOL       0.0802
     22 H8         26.7964   33.5754   42.2712 H           1 MOL       0.0802
     23 H9         24.6588   33.8234   42.0450 H           1 MOL       0.2001
     24 H10        24.5927   32.6951   40.8182 H           1 MOL       0.2001
     25 H11        24.5663   29.3082   47.5524 H           1 MOL       0.0591
     26 H12        24.3727   26.8394   44.1378 H           1 MOL       0.0588
     27 H13        24.2482   27.1101   46.5461 H           1 MOL       0.0799
@<TRIPOS>BOND
     1     1     2   1
     2     1     3   1
     3     1     4   1
     4     1     5   1
     5     2     6  ar
     6     2     7  ar
     7     3     8  am
     8     3     9   2
     9     4    10   1
    10     5    11   1
    11     6     8   1
    12     6    12  ar
    13     7    13  ar
    14    10    11   1
    15    12    14  ar
    16    13    14  ar
    17     4    15   1
    18     4    16   1
    19     5    17   1
    20     5    18   1
    21     7    19   1
    22     8    20   1
    23    10    21   1
    24    10    22   1
    25    11    23   1
    26    11    24   1
    27    12    25   1
    28    13    26   1
    29    14    27   1
@<TRIPOS>SUBSTRUCTURE
     1  MOL      1

