@<TRIPOS>MOLECULE
3udh_ligand_062
    27    29
SMALL
GAST_HUCK
****
This file was generated by PARSER (from files_GN.cpp)

@<TRIPOS>ATOM
      1 C1         17.1036   36.8733   46.3915 C.3         1 MOL       0.0781
      2 C2         17.3757   35.4938   45.9225 C.ar        1 MOL      -0.0219
      3 C3         15.6678   36.9205   46.1111 C.2         1 MOL       0.2144
      4 C4         17.4487   37.1358   47.8770 C.3         1 MOL      -0.0294
      5 C5         17.9021   37.9846   45.6636 C.3         1 MOL      -0.0531
      6 C6         16.1930   34.9186   45.4577 C.ar        1 MOL       0.0939
      7 C7         18.5764   34.7526   45.8898 C.ar        1 MOL      -0.0552
      8 N1         15.2085   35.8076   45.5840 N.am        1 MOL      -0.2200
      9 O1         14.9446   37.8834   46.3179 O.2         1 MOL      -0.3196
     10 C8         17.6569   38.6638   47.9506 C.3         1 MOL      -0.0449
     11 N2         17.8813   39.1412   46.5745 N.4         1 MOL       0.2177
     12 C9         16.1566   33.6056   44.9543 C.ar        1 MOL      -0.0098
     13 C10        18.5624   33.4384   45.3763 C.ar        1 MOL      -0.0486
     14 C11        17.3573   32.8689   44.9082 C.ar        1 MOL      -0.0475
     15 H1         18.3825   36.6375   48.1487 H           1 MOL       0.0183
     16 H2         16.6648   36.7994   48.5619 H           1 MOL       0.0183
     17 H3         17.4665   38.2533   44.6966 H           1 MOL       0.0667
     18 H4         18.9421   37.6864   45.5062 H           1 MOL       0.0667
     19 H5         19.4484   35.1614   46.2315 H           1 MOL       0.0771
     20 H6         14.2896   35.6648   45.3079 H           1 MOL       0.2404
     21 H7         18.5114   38.9163   48.5813 H           1 MOL       0.0802
     22 H8         16.7655   39.1494   48.3500 H           1 MOL       0.0802
     23 H9         17.1119   39.7605   46.3112 H           1 MOL       0.2001
     24 H10        18.7599   39.6604   46.5182 H           1 MOL       0.2001
     25 H11        15.2781   33.1974   44.6305 H           1 MOL       0.0591
     26 H12        19.4263   32.8939   45.3440 H           1 MOL       0.0588
     27 H13        17.3553   31.9140   44.5430 H           1 MOL       0.0799
@<TRIPOS>BOND
     1     1     2   1
     2     1     3   1
     3     1     4   1
     4     1     5   1
     5     2     6  ar
     6     2     7  ar
     7     3     8  am
     8     3     9   2
     9     4    10   1
    10     5    11   1
    11     6     8   1
    12     6    12  ar
    13     7    13  ar
    14    10    11   1
    15    12    14  ar
    16    13    14  ar
    17     4    15   1
    18     4    16   1
    19     5    17   1
    20     5    18   1
    21     7    19   1
    22     8    20   1
    23    10    21   1
    24    10    22   1
    25    11    23   1
    26    11    24   1
    27    12    25   1
    28    13    26   1
    29    14    27   1
@<TRIPOS>SUBSTRUCTURE
     1  MOL      1

