@<TRIPOS>MOLECULE
3udh_ligand_017
    27    29
SMALL
GAST_HUCK
****
This file was generated by PARSER (from files_GN.cpp)

@<TRIPOS>ATOM
      1 C1         24.8309   36.5857   41.3493 C.3         1 MOL       0.0781
      2 C2         23.5488   37.0867   40.7997 C.ar        1 MOL      -0.0219
      3 C3         24.5349   35.1553   41.3173 C.2         1 MOL       0.2144
      4 C4         26.0645   37.0047   40.4964 C.3         1 MOL      -0.0294
      5 C5         25.1259   37.1246   42.7773 C.3         1 MOL      -0.0531
      6 C6         22.7014   36.0108   40.5343 C.ar        1 MOL       0.0939
      7 C7         23.1237   38.4051   40.5354 C.ar        1 MOL      -0.0552
      8 N1         23.3364   34.8825   40.8534 N.am        1 MOL      -0.2200
      9 O1         25.3124   34.2778   41.6643 O.2         1 MOL      -0.3196
     10 C8         26.9807   37.7593   41.4794 C.3         1 MOL      -0.0449
     11 N2         26.1073   38.1950   42.5755 N.4         1 MOL       0.2177
     12 C9         21.4082   36.2061   40.0174 C.ar        1 MOL      -0.0098
     13 C10        21.8306   38.6196   40.0163 C.ar        1 MOL      -0.0486
     14 C11        20.9726   37.5252   39.7692 C.ar        1 MOL      -0.0475
     15 H1         25.7858   37.6707   39.6717 H           1 MOL       0.0183
     16 H2         26.5946   36.1482   40.0657 H           1 MOL       0.0183
     17 H3         25.5770   36.3578   43.4158 H           1 MOL       0.0667
     18 H4         24.2379   37.5117   43.2824 H           1 MOL       0.0667
     19 H5         23.7485   39.1939   40.7110 H           1 MOL       0.0771
     20 H6         22.9752   33.9878   40.7480 H           1 MOL       0.2404
     21 H7         27.4652   38.6161   41.0049 H           1 MOL       0.0802
     22 H8         27.7508   37.0883   41.8728 H           1 MOL       0.0802
     23 H9         26.6474   38.3607   43.4268 H           1 MOL       0.2001
     24 H10        25.6173   39.0497   42.3025 H           1 MOL       0.2001
     25 H11        20.7954   35.4111   39.8243 H           1 MOL       0.0591
     26 H12        21.5131   39.5718   39.8236 H           1 MOL       0.0588
     27 H13        20.0315   37.6909   39.4025 H           1 MOL       0.0799
@<TRIPOS>BOND
     1     1     2   1
     2     1     3   1
     3     1     4   1
     4     1     5   1
     5     2     6  ar
     6     2     7  ar
     7     3     8  am
     8     3     9   2
     9     4    10   1
    10     5    11   1
    11     6     8   1
    12     6    12  ar
    13     7    13  ar
    14    10    11   1
    15    12    14  ar
    16    13    14  ar
    17     4    15   1
    18     4    16   1
    19     5    17   1
    20     5    18   1
    21     7    19   1
    22     8    20   1
    23    10    21   1
    24    10    22   1
    25    11    23   1
    26    11    24   1
    27    12    25   1
    28    13    26   1
    29    14    27   1
@<TRIPOS>SUBSTRUCTURE
     1  MOL      1

