@<TRIPOS>MOLECULE
3udh_ligand_080
    27    29
SMALL
GAST_HUCK
****
This file was generated by PARSER (from files_GN.cpp)

@<TRIPOS>ATOM
      1 C1         19.4353   35.1179   42.6903 C.3         1 MOL       0.0781
      2 C2         20.9033   35.2495   42.5332 C.ar        1 MOL      -0.0219
      3 C3         19.2665   36.0065   43.8375 C.2         1 MOL       0.2144
      4 C4         18.6292   35.5494   41.4297 C.3         1 MOL      -0.0294
      5 C5         18.9826   33.6585   42.9792 C.3         1 MOL      -0.0531
      6 C6         21.4100   36.1013   43.5139 C.ar        1 MOL       0.0939
      7 C7         21.7780   34.6510   41.6038 C.ar        1 MOL      -0.0552
      8 N1         20.3954   36.5224   44.2660 N.am        1 MOL      -0.2200
      9 O1         18.1968   36.2638   44.3696 O.2         1 MOL      -0.3196
     10 C8         17.6908   34.3632   41.1454 C.3         1 MOL      -0.0449
     11 N2         18.3688   33.1993   41.7280 N.4         1 MOL       0.2177
     12 C9         22.7834   36.3865   43.6025 C.ar        1 MOL      -0.0098
     13 C10        23.1597   34.9204   41.6801 C.ar        1 MOL      -0.0486
     14 C11        23.6600   35.7854   42.6767 C.ar        1 MOL      -0.0475
     15 H1         19.2801   35.7069   40.5642 H           1 MOL       0.0183
     16 H2         18.0490   36.4634   41.5851 H           1 MOL       0.0183
     17 H3         18.2244   33.6157   43.7678 H           1 MOL       0.0667
     18 H4         19.8075   32.9980   43.2585 H           1 MOL       0.0667
     19 H5         21.4169   34.0294   40.8829 H           1 MOL       0.0771
     20 H6         20.4752   37.1322   45.0139 H           1 MOL       0.2404
     21 H7         17.5325   34.2206   40.0742 H           1 MOL       0.0802
     22 H8         16.7240   34.5103   41.6360 H           1 MOL       0.0802
     23 H9         17.7115   32.4348   41.8992 H           1 MOL       0.2001
     24 H10        19.0999   32.8920   41.0849 H           1 MOL       0.2001
     25 H11        23.1420   37.0110   44.3258 H           1 MOL       0.0591
     26 H12        23.8001   34.4858   41.0119 H           1 MOL       0.0588
     27 H13        24.6627   35.9768   42.7282 H           1 MOL       0.0799
@<TRIPOS>BOND
     1     1     2   1
     2     1     3   1
     3     1     4   1
     4     1     5   1
     5     2     6  ar
     6     2     7  ar
     7     3     8  am
     8     3     9   2
     9     4    10   1
    10     5    11   1
    11     6     8   1
    12     6    12  ar
    13     7    13  ar
    14    10    11   1
    15    12    14  ar
    16    13    14  ar
    17     4    15   1
    18     4    16   1
    19     5    17   1
    20     5    18   1
    21     7    19   1
    22     8    20   1
    23    10    21   1
    24    10    22   1
    25    11    23   1
    26    11    24   1
    27    12    25   1
    28    13    26   1
    29    14    27   1
@<TRIPOS>SUBSTRUCTURE
     1  MOL      1

