@<TRIPOS>MOLECULE
3udh_ligand_084
    27    29
SMALL
GAST_HUCK
****
This file was generated by PARSER (from files_GN.cpp)

@<TRIPOS>ATOM
      1 C1         17.3496   37.3941   48.8777 C.3         1 MOL       0.0781
      2 C2         17.7106   36.7109   47.6139 C.ar        1 MOL      -0.0219
      3 C3         17.8623   38.7275   48.5566 C.2         1 MOL       0.2144
      4 C4         15.8398   37.3842   49.2152 C.3         1 MOL      -0.0294
      5 C5         17.9794   36.7889   50.1591 C.3         1 MOL      -0.0531
      6 C6         18.3317   37.6157   46.7490 C.ar        1 MOL       0.0939
      7 C7         17.5273   35.3713   47.2149 C.ar        1 MOL      -0.0552
      8 N1         18.3899   38.8025   47.3520 N.am        1 MOL      -0.2200
      9 O1         17.8381   39.6922   49.3061 O.2         1 MOL      -0.3196
     10 C8         15.7981   37.6028   50.7412 C.3         1 MOL      -0.0449
     11 N2         17.1156   37.2130   51.2744 N.4         1 MOL       0.2177
     12 C9         18.7953   37.2241   45.4820 C.ar        1 MOL      -0.0098
     13 C10        17.9825   34.9629   45.9406 C.ar        1 MOL      -0.0486
     14 C11        18.6124   35.8862   45.0797 C.ar        1 MOL      -0.0475
     15 H1         15.4054   36.4082   48.9817 H           1 MOL       0.0183
     16 H2         15.2770   38.1535   48.6786 H           1 MOL       0.0183
     17 H3         19.0115   37.1168   50.3193 H           1 MOL       0.0667
     18 H4         17.9650   35.6978   50.1189 H           1 MOL       0.0667
     19 H5         17.0750   34.6997   47.8374 H           1 MOL       0.0771
     20 H6         18.7802   39.6021   46.9652 H           1 MOL       0.2404
     21 H7         15.0134   37.0006   51.2029 H           1 MOL       0.0802
     22 H8         15.6177   38.6547   50.9724 H           1 MOL       0.0802
     23 H9         17.5371   38.0115   51.7539 H           1 MOL       0.2001
     24 H10        17.0097   36.4421   51.9357 H           1 MOL       0.2001
     25 H11        19.2637   37.8945   44.8696 H           1 MOL       0.0591
     26 H12        17.8599   33.9918   45.6448 H           1 MOL       0.0588
     27 H13        18.9411   35.5814   44.1599 H           1 MOL       0.0799
@<TRIPOS>BOND
     1     1     2   1
     2     1     3   1
     3     1     4   1
     4     1     5   1
     5     2     6  ar
     6     2     7  ar
     7     3     8  am
     8     3     9   2
     9     4    10   1
    10     5    11   1
    11     6     8   1
    12     6    12  ar
    13     7    13  ar
    14    10    11   1
    15    12    14  ar
    16    13    14  ar
    17     4    15   1
    18     4    16   1
    19     5    17   1
    20     5    18   1
    21     7    19   1
    22     8    20   1
    23    10    21   1
    24    10    22   1
    25    11    23   1
    26    11    24   1
    27    12    25   1
    28    13    26   1
    29    14    27   1
@<TRIPOS>SUBSTRUCTURE
     1  MOL      1

