@<TRIPOS>MOLECULE
3udh_ligand_023
    27    29
SMALL
GAST_HUCK
****
This file was generated by PARSER (from files_GN.cpp)

@<TRIPOS>ATOM
      1 C1         18.2106   35.9178   43.0469 C.3         1 MOL       0.0781
      2 C2         19.4456   36.2378   42.2979 C.ar        1 MOL      -0.0219
      3 C3         17.4954   35.2095   41.9877 C.2         1 MOL       0.2144
      4 C4         18.4227   35.0652   44.3215 C.3         1 MOL      -0.0294
      5 C5         17.4503   37.1554   43.5893 C.3         1 MOL      -0.0531
      6 C6         19.3512   35.7502   40.9940 C.ar        1 MOL       0.0939
      7 C7         20.6064   36.9249   42.7101 C.ar        1 MOL      -0.0552
      8 N1         18.1766   35.1326   40.8632 N.am        1 MOL      -0.2200
      9 O1         16.3841   34.7138   42.1030 O.2         1 MOL      -0.3196
     10 C8         17.1814   35.3737   45.1824 C.3         1 MOL      -0.0449
     11 N2         16.6602   36.6793   44.7349 N.4         1 MOL       0.2177
     12 C9         20.3843   35.9406   40.0580 C.ar        1 MOL      -0.0098
     13 C10        21.6470   37.1378   41.7845 C.ar        1 MOL      -0.0486
     14 C11        21.5399   36.6385   40.4675 C.ar        1 MOL      -0.0475
     15 H1         19.3191   35.3949   44.8591 H           1 MOL       0.0183
     16 H2         18.5162   33.9954   44.1089 H           1 MOL       0.0183
     17 H3         16.7982   37.6119   42.8395 H           1 MOL       0.0667
     18 H4         18.1453   37.9163   43.9543 H           1 MOL       0.0667
     19 H5         20.6896   37.2693   43.6676 H           1 MOL       0.0771
     20 H6         17.8641   34.6948   40.0555 H           1 MOL       0.2404
     21 H7         17.4414   35.4160   46.2441 H           1 MOL       0.0802
     22 H8         16.4109   34.6111   45.0321 H           1 MOL       0.0802
     23 H9         15.6828   36.5894   44.4496 H           1 MOL       0.2001
     24 H10        16.7189   37.3559   45.4982 H           1 MOL       0.2001
     25 H11        20.2996   35.5817   39.1043 H           1 MOL       0.0591
     26 H12        22.4844   37.6522   42.0701 H           1 MOL       0.0588
     27 H13        22.3069   36.7830   39.8074 H           1 MOL       0.0799
@<TRIPOS>BOND
     1     1     2   1
     2     1     3   1
     3     1     4   1
     4     1     5   1
     5     2     6  ar
     6     2     7  ar
     7     3     8  am
     8     3     9   2
     9     4    10   1
    10     5    11   1
    11     6     8   1
    12     6    12  ar
    13     7    13  ar
    14    10    11   1
    15    12    14  ar
    16    13    14  ar
    17     4    15   1
    18     4    16   1
    19     5    17   1
    20     5    18   1
    21     7    19   1
    22     8    20   1
    23    10    21   1
    24    10    22   1
    25    11    23   1
    26    11    24   1
    27    12    25   1
    28    13    26   1
    29    14    27   1
@<TRIPOS>SUBSTRUCTURE
     1  MOL      1

