@<TRIPOS>MOLECULE
3udh_ligand_085
    27    29
SMALL
GAST_HUCK
****
This file was generated by PARSER (from files_GN.cpp)

@<TRIPOS>ATOM
      1 C1         17.7059   39.4605   42.3947 C.3         1 MOL       0.0781
      2 C2         17.6643   38.9807   43.7977 C.ar        1 MOL      -0.0219
      3 C3         18.7417   38.5576   41.8965 C.2         1 MOL       0.2144
      4 C4         16.3397   39.3394   41.6547 C.3         1 MOL      -0.0294
      5 C5         18.0896   40.9635   42.2759 C.3         1 MOL      -0.0531
      6 C6         18.5935   37.9550   43.9731 C.ar        1 MOL       0.0939
      7 C7         16.8807   39.4134   44.8867 C.ar        1 MOL      -0.0552
      8 N1         19.2038   37.7350   42.8107 N.am        1 MOL      -0.2200
      9 O1         19.1657   38.5485   40.7500 O.2         1 MOL      -0.3196
     10 C8         16.0866   40.7381   41.0649 C.3         1 MOL      -0.0449
     11 N2         16.8370   41.6496   41.9357 N.4         1 MOL       0.2177
     12 C9         18.7854   37.3375   45.2210 C.ar        1 MOL      -0.0098
     13 C10        17.0529   38.7984   46.1455 C.ar        1 MOL      -0.0486
     14 C11        18.0034   37.7671   46.3119 C.ar        1 MOL      -0.0475
     15 H1         15.5274   39.0911   42.3435 H           1 MOL       0.0183
     16 H2         16.3454   38.5898   40.8598 H           1 MOL       0.0183
     17 H3         18.8061   41.1387   41.4669 H           1 MOL       0.0667
     18 H4         18.5061   41.3771   43.1980 H           1 MOL       0.0667
     19 H5         16.1986   40.1648   44.7687 H           1 MOL       0.0771
     20 H6         19.8992   37.0737   42.6649 H           1 MOL       0.2404
     21 H7         15.0249   40.9934   41.0646 H           1 MOL       0.0802
     22 H8         16.4710   40.8021   40.0417 H           1 MOL       0.0802
     23 H9         17.0217   42.5382   41.4640 H           1 MOL       0.2001
     24 H10        16.3006   41.8159   42.7906 H           1 MOL       0.2001
     25 H11        19.4793   36.5954   45.3342 H           1 MOL       0.0591
     26 H12        16.4892   39.1041   46.9415 H           1 MOL       0.0588
     27 H13        18.1257   37.3300   47.2280 H           1 MOL       0.0799
@<TRIPOS>BOND
     1     1     2   1
     2     1     3   1
     3     1     4   1
     4     1     5   1
     5     2     6  ar
     6     2     7  ar
     7     3     8  am
     8     3     9   2
     9     4    10   1
    10     5    11   1
    11     6     8   1
    12     6    12  ar
    13     7    13  ar
    14    10    11   1
    15    12    14  ar
    16    13    14  ar
    17     4    15   1
    18     4    16   1
    19     5    17   1
    20     5    18   1
    21     7    19   1
    22     8    20   1
    23    10    21   1
    24    10    22   1
    25    11    23   1
    26    11    24   1
    27    12    25   1
    28    13    26   1
    29    14    27   1
@<TRIPOS>SUBSTRUCTURE
     1  MOL      1

