@<TRIPOS>MOLECULE
3udh_ligand_077
    27    29
SMALL
GAST_HUCK
****
This file was generated by PARSER (from files_GN.cpp)

@<TRIPOS>ATOM
      1 C1         30.8774   34.5624   44.9729 C.3         1 MOL       0.0781
      2 C2         31.0134   33.1141   44.6986 C.ar        1 MOL      -0.0219
      3 C3         30.6284   34.4872   46.4129 C.2         1 MOL       0.2144
      4 C4         32.1228   35.4105   44.6296 C.3         1 MOL      -0.0294
      5 C5         29.7580   35.2777   44.1765 C.3         1 MOL      -0.0531
      6 C6         30.8817   32.4000   45.8880 C.ar        1 MOL       0.0939
      7 C7         31.2452   32.4266   43.4893 C.ar        1 MOL      -0.0552
      8 N1         30.6666   33.2605   46.8804 N.am        1 MOL      -0.2200
      9 O1         30.4387   35.4441   47.1469 O.2         1 MOL      -0.3196
     10 C8         31.5584   36.8355   44.4532 C.3         1 MOL      -0.0449
     11 N2         30.1169   36.7093   44.1842 N.4         1 MOL       0.2177
     12 C9         30.9739   31.0000   45.9261 C.ar        1 MOL      -0.0098
     13 C10        31.3365   31.0201   43.5056 C.ar        1 MOL      -0.0486
     14 C11        31.2049   30.3083   44.7202 C.ar        1 MOL      -0.0475
     15 H1         32.5675   35.0754   43.6879 H           1 MOL       0.0183
     16 H2         32.8936   35.3706   45.4057 H           1 MOL       0.0183
     17 H3         28.7667   35.1254   44.6120 H           1 MOL       0.0667
     18 H4         29.7347   34.9428   43.1353 H           1 MOL       0.0667
     19 H5         31.3444   32.9385   42.6116 H           1 MOL       0.0771
     20 H6         30.5471   33.0160   47.8112 H           1 MOL       0.2404
     21 H7         32.0490   37.3504   43.6269 H           1 MOL       0.0802
     22 H8         31.6983   37.4150   45.3672 H           1 MOL       0.0802
     23 H9         29.5952   37.1839   44.9230 H           1 MOL       0.2001
     24 H10        29.9015   37.1594   43.2916 H           1 MOL       0.2001
     25 H11        30.8750   30.4927   46.8090 H           1 MOL       0.0591
     26 H12        31.5031   30.5106   42.6333 H           1 MOL       0.0588
     27 H13        31.2764   29.2883   44.7228 H           1 MOL       0.0799
@<TRIPOS>BOND
     1     1     2   1
     2     1     3   1
     3     1     4   1
     4     1     5   1
     5     2     6  ar
     6     2     7  ar
     7     3     8  am
     8     3     9   2
     9     4    10   1
    10     5    11   1
    11     6     8   1
    12     6    12  ar
    13     7    13  ar
    14    10    11   1
    15    12    14  ar
    16    13    14  ar
    17     4    15   1
    18     4    16   1
    19     5    17   1
    20     5    18   1
    21     7    19   1
    22     8    20   1
    23    10    21   1
    24    10    22   1
    25    11    23   1
    26    11    24   1
    27    12    25   1
    28    13    26   1
    29    14    27   1
@<TRIPOS>SUBSTRUCTURE
     1  MOL      1

