@<TRIPOS>MOLECULE
3udh_ligand_067
    27    29
SMALL
GAST_HUCK
****
This file was generated by PARSER (from files_GN.cpp)

@<TRIPOS>ATOM
      1 C1         30.7279   34.7414   45.2687 C.3         1 MOL       0.0781
      2 C2         30.7541   34.6216   46.7454 C.ar        1 MOL      -0.0219
      3 C3         30.8336   33.3219   44.9403 C.2         1 MOL       0.2144
      4 C4         29.4372   35.4262   44.7300 C.3         1 MOL      -0.0294
      5 C5         31.9008   35.5938   44.7051 C.3         1 MOL      -0.0531
      6 C6         30.8705   33.2805   47.1086 C.ar        1 MOL       0.0939
      7 C7         30.6914   35.6200   47.7384 C.ar        1 MOL      -0.0552
      8 N1         30.9108   32.5458   45.9983 N.am        1 MOL      -0.2200
      9 O1         30.8465   32.8706   43.8041 O.2         1 MOL      -0.3196
     10 C8         29.9452   36.5437   43.8028 C.3         1 MOL      -0.0449
     11 N2         31.2877   36.8644   44.3004 N.4         1 MOL       0.2177
     12 C9         30.9289   32.8864   48.4566 C.ar        1 MOL      -0.0098
     13 C10        30.7401   35.2424   49.0966 C.ar        1 MOL      -0.0486
     14 C11        30.8575   33.8811   49.4538 C.ar        1 MOL      -0.0475
     15 H1         28.8514   35.8773   45.5359 H           1 MOL       0.0183
     16 H2         28.7845   34.7415   44.1804 H           1 MOL       0.0183
     17 H3         32.3529   35.1312   43.8228 H           1 MOL       0.0667
     18 H4         32.6916   35.7765   45.4371 H           1 MOL       0.0667
     19 H5         30.6114   36.6040   47.4776 H           1 MOL       0.0771
     20 H6         30.9868   31.5784   45.9745 H           1 MOL       0.2404
     21 H7         29.3010   37.4251   43.8392 H           1 MOL       0.0802
     22 H8         30.0091   36.1900   42.7692 H           1 MOL       0.0802
     23 H9         31.8460   37.3297   43.5808 H           1 MOL       0.2001
     24 H10        31.2065   37.4716   45.1182 H           1 MOL       0.2001
     25 H11        31.0151   31.8990   48.7072 H           1 MOL       0.0591
     26 H12        30.6923   35.9584   49.8250 H           1 MOL       0.0588
     27 H13        30.8949   33.6148   50.4402 H           1 MOL       0.0799
@<TRIPOS>BOND
     1     1     2   1
     2     1     3   1
     3     1     4   1
     4     1     5   1
     5     2     6  ar
     6     2     7  ar
     7     3     8  am
     8     3     9   2
     9     4    10   1
    10     5    11   1
    11     6     8   1
    12     6    12  ar
    13     7    13  ar
    14    10    11   1
    15    12    14  ar
    16    13    14  ar
    17     4    15   1
    18     4    16   1
    19     5    17   1
    20     5    18   1
    21     7    19   1
    22     8    20   1
    23    10    21   1
    24    10    22   1
    25    11    23   1
    26    11    24   1
    27    12    25   1
    28    13    26   1
    29    14    27   1
@<TRIPOS>SUBSTRUCTURE
     1  MOL      1

