@<TRIPOS>MOLECULE
3udh_ligand_081
    27    29
SMALL
GAST_HUCK
****
This file was generated by PARSER (from files_GN.cpp)

@<TRIPOS>ATOM
      1 C1         27.9072   31.0540   42.0798 C.3         1 MOL       0.0781
      2 C2         27.2670   29.8266   42.6024 C.ar        1 MOL      -0.0219
      3 C3         26.7342   31.9267   42.0688 C.2         1 MOL       0.2144
      4 C4         29.0716   31.5905   42.9448 C.3         1 MOL      -0.0294
      5 C5         28.5664   30.8903   40.6903 C.3         1 MOL      -0.0531
      6 C6         25.9123   30.0674   42.8317 C.ar        1 MOL       0.0939
      7 C7         27.8138   28.5556   42.8736 C.ar        1 MOL      -0.0552
      8 N1         25.6436   31.3295   42.4963 N.am        1 MOL      -0.2200
      9 O1         26.7316   33.0932   41.7032 O.2         1 MOL      -0.3196
     10 C8         29.9185   32.4138   41.9549 C.3         1 MOL      -0.0449
     11 N2         29.6094   31.9234   40.5999 N.4         1 MOL       0.2177
     12 C9         25.0616   29.0663   43.3314 C.ar        1 MOL      -0.0098
     13 C10        26.9761   27.5407   43.3798 C.ar        1 MOL      -0.0486
     14 C11        25.6058   27.7947   43.6082 C.ar        1 MOL      -0.0475
     15 H1         29.6768   30.7664   43.3345 H           1 MOL       0.0183
     16 H2         28.7308   32.1987   43.7863 H           1 MOL       0.0183
     17 H3         27.8545   30.9845   39.8660 H           1 MOL       0.0667
     18 H4         29.0631   29.9209   40.6150 H           1 MOL       0.0667
     19 H5         28.8048   28.3697   42.7081 H           1 MOL       0.0771
     20 H6         24.7695   31.7463   42.5593 H           1 MOL       0.2404
     21 H7         30.9859   32.3095   42.1619 H           1 MOL       0.0802
     22 H8         29.6475   33.4704   42.0180 H           1 MOL       0.0802
     23 H9         29.2775   32.7006   40.0232 H           1 MOL       0.2001
     24 H10        30.4402   31.5088   40.1701 H           1 MOL       0.2001
     25 H11        24.0711   29.2575   43.4937 H           1 MOL       0.0591
     26 H12        27.3650   26.6182   43.5852 H           1 MOL       0.0588
     27 H13        25.0053   27.0536   43.9763 H           1 MOL       0.0799
@<TRIPOS>BOND
     1     1     2   1
     2     1     3   1
     3     1     4   1
     4     1     5   1
     5     2     6  ar
     6     2     7  ar
     7     3     8  am
     8     3     9   2
     9     4    10   1
    10     5    11   1
    11     6     8   1
    12     6    12  ar
    13     7    13  ar
    14    10    11   1
    15    12    14  ar
    16    13    14  ar
    17     4    15   1
    18     4    16   1
    19     5    17   1
    20     5    18   1
    21     7    19   1
    22     8    20   1
    23    10    21   1
    24    10    22   1
    25    11    23   1
    26    11    24   1
    27    12    25   1
    28    13    26   1
    29    14    27   1
@<TRIPOS>SUBSTRUCTURE
     1  MOL      1

