@<TRIPOS>MOLECULE
3udh_ligand_070
    27    29
SMALL
GAST_HUCK
****
This file was generated by PARSER (from files_GN.cpp)

@<TRIPOS>ATOM
      1 C1         19.7732   35.9459   41.9742 C.3         1 MOL       0.0781
      2 C2         20.9510   35.0467   41.9486 C.ar        1 MOL      -0.0219
      3 C3         19.9908   36.6140   40.6932 C.2         1 MOL       0.2144
      4 C4         18.4162   35.1864   42.0708 C.3         1 MOL      -0.0294
      5 C5         19.7725   36.9218   43.1852 C.3         1 MOL      -0.0531
      6 C6         21.6676   35.2455   40.7693 C.ar        1 MOL       0.0939
      7 C7         21.4045   34.1098   42.8998 C.ar        1 MOL      -0.0552
      8 N1         21.0473   36.1758   40.0456 N.am        1 MOL      -0.2200
      9 O1         19.2788   37.5004   40.2455 O.2         1 MOL      -0.3196
     10 C8         17.6854   35.8400   43.2580 C.3         1 MOL      -0.0449
     11 N2         18.7534   36.3925   44.0993 N.4         1 MOL       0.2177
     12 C9         22.8559   34.5460   40.5025 C.ar        1 MOL      -0.0098
     13 C10        22.5921   33.3919   42.6458 C.ar        1 MOL      -0.0486
     14 C11        23.3191   33.6147   41.4557 C.ar        1 MOL      -0.0475
     15 H1         18.5627   34.1229   42.2826 H           1 MOL       0.0183
     16 H2         17.8121   35.2687   41.1622 H           1 MOL       0.0183
     17 H3         19.4732   37.9320   42.8904 H           1 MOL       0.0667
     18 H4         20.7385   36.9835   43.6932 H           1 MOL       0.0667
     19 H5         20.8839   33.9565   43.7655 H           1 MOL       0.0771
     20 H6         21.3296   36.4760   39.1650 H           1 MOL       0.2404
     21 H7         17.0917   35.1152   43.8188 H           1 MOL       0.0802
     22 H8         17.0316   36.6470   42.9124 H           1 MOL       0.0802
     23 H9         18.3939   37.1280   44.7125 H           1 MOL       0.2001
     24 H10        19.1620   35.6419   44.6610 H           1 MOL       0.2001
     25 H11        23.3761   34.7220   39.6414 H           1 MOL       0.0591
     26 H12        22.9307   32.7110   43.3293 H           1 MOL       0.0588
     27 H13        24.1842   33.0978   41.2851 H           1 MOL       0.0799
@<TRIPOS>BOND
     1     1     2   1
     2     1     3   1
     3     1     4   1
     4     1     5   1
     5     2     6  ar
     6     2     7  ar
     7     3     8  am
     8     3     9   2
     9     4    10   1
    10     5    11   1
    11     6     8   1
    12     6    12  ar
    13     7    13  ar
    14    10    11   1
    15    12    14  ar
    16    13    14  ar
    17     4    15   1
    18     4    16   1
    19     5    17   1
    20     5    18   1
    21     7    19   1
    22     8    20   1
    23    10    21   1
    24    10    22   1
    25    11    23   1
    26    11    24   1
    27    12    25   1
    28    13    26   1
    29    14    27   1
@<TRIPOS>SUBSTRUCTURE
     1  MOL      1

