@<TRIPOS>MOLECULE
3udh_ligand_051
    27    29
SMALL
GAST_HUCK
****
This file was generated by PARSER (from files_GN.cpp)

@<TRIPOS>ATOM
      1 C1         30.9362   32.1540   43.1841 C.3         1 MOL       0.0781
      2 C2         29.7718   32.0192   42.2745 C.ar        1 MOL      -0.0219
      3 C3         31.9985   32.0727   42.1832 C.2         1 MOL       0.2144
      4 C4         30.9298   33.4771   44.0057 C.3         1 MOL      -0.0294
      5 C5         31.0059   31.0209   44.2483 C.3         1 MOL      -0.0531
      6 C6         30.2175   31.8717   40.9609 C.ar        1 MOL       0.0939
      7 C7         28.3902   31.9992   42.5565 C.ar        1 MOL      -0.0552
      8 N1         31.5496   31.9073   40.9598 N.am        1 MOL      -0.2200
      9 O1         33.1940   32.1532   42.4242 O.2         1 MOL      -0.3196
     10 C8         31.1061   33.0259   45.4680 C.3         1 MOL      -0.0449
     11 N2         30.5930   31.6538   45.5062 N.4         1 MOL       0.2177
     12 C9         29.3190   31.7003   39.8921 C.ar        1 MOL      -0.0098
     13 C10        27.4724   31.8311   41.4974 C.ar        1 MOL      -0.0486
     14 C11        27.9368   31.6811   40.1722 C.ar        1 MOL      -0.0475
     15 H1         29.9776   34.0087   43.9093 H           1 MOL       0.0183
     16 H2         31.7330   34.1642   43.7194 H           1 MOL       0.0183
     17 H3         32.0247   30.6423   44.3769 H           1 MOL       0.0667
     18 H4         30.3527   30.1743   44.0235 H           1 MOL       0.0667
     19 H5         28.0538   32.1055   43.5148 H           1 MOL       0.0771
     20 H6         32.1111   31.8272   40.1715 H           1 MOL       0.2404
     21 H7         30.5562   33.6668   46.1624 H           1 MOL       0.0802
     22 H8         32.1642   33.0260   45.7430 H           1 MOL       0.0802
     23 H9         30.9595   31.1446   46.3134 H           1 MOL       0.2001
     24 H10        29.5745   31.6946   45.5544 H           1 MOL       0.2001
     25 H11        29.6660   31.5957   38.9339 H           1 MOL       0.0591
     26 H12        26.4689   31.8169   41.6900 H           1 MOL       0.0588
     27 H13        27.2648   31.5568   39.4108 H           1 MOL       0.0799
@<TRIPOS>BOND
     1     1     2   1
     2     1     3   1
     3     1     4   1
     4     1     5   1
     5     2     6  ar
     6     2     7  ar
     7     3     8  am
     8     3     9   2
     9     4    10   1
    10     5    11   1
    11     6     8   1
    12     6    12  ar
    13     7    13  ar
    14    10    11   1
    15    12    14  ar
    16    13    14  ar
    17     4    15   1
    18     4    16   1
    19     5    17   1
    20     5    18   1
    21     7    19   1
    22     8    20   1
    23    10    21   1
    24    10    22   1
    25    11    23   1
    26    11    24   1
    27    12    25   1
    28    13    26   1
    29    14    27   1
@<TRIPOS>SUBSTRUCTURE
     1  MOL      1

