@<TRIPOS>MOLECULE
3udh_ligand_030
    27    29
SMALL
GAST_HUCK
****
This file was generated by PARSER (from files_GN.cpp)

@<TRIPOS>ATOM
      1 C1         24.3398   30.4901   44.5839 C.3         1 MOL       0.0781
      2 C2         24.2655   29.5819   45.7535 C.ar        1 MOL      -0.0219
      3 C3         24.9408   29.5582   43.6292 C.2         1 MOL       0.2144
      4 C4         22.9536   31.0493   44.1456 C.3         1 MOL      -0.0294
      5 C5         25.2140   31.7496   44.8496 C.3         1 MOL      -0.0531
      6 C6         24.7943   28.3374   45.4148 C.ar        1 MOL       0.0939
      7 C7         23.7887   29.8138   47.0609 C.ar        1 MOL      -0.0552
      8 N1         25.1800   28.3710   44.1411 N.am        1 MOL      -0.2200
      9 O1         25.2100   29.8190   42.4645 O.2         1 MOL      -0.3196
     10 C8         23.1534   32.5738   44.0732 C.3         1 MOL      -0.0449
     11 N2         24.2560   32.8512   45.0011 N.4         1 MOL       0.2177
     12 C9         24.8726   27.2911   46.3494 C.ar        1 MOL      -0.0098
     13 C10        23.8541   28.7722   48.0103 C.ar        1 MOL      -0.0486
     14 C11        24.3911   27.5151   47.6550 C.ar        1 MOL      -0.0475
     15 H1         22.1748   30.8246   44.8810 H           1 MOL       0.0183
     16 H2         22.6217   30.6637   43.1784 H           1 MOL       0.0183
     17 H3         25.8696   31.9760   44.0025 H           1 MOL       0.0667
     18 H4         25.8309   31.6653   45.7477 H           1 MOL       0.0667
     19 H5         23.4049   30.7252   47.3193 H           1 MOL       0.0771
     20 H6         25.5849   27.6269   43.6665 H           1 MOL       0.2404
     21 H7         22.2536   33.1164   44.3712 H           1 MOL       0.0802
     22 H8         23.4367   32.8778   43.0609 H           1 MOL       0.0802
     23 H9         24.6959   33.7501   44.7908 H           1 MOL       0.2001
     24 H10        23.8971   32.8561   45.9589 H           1 MOL       0.2001
     25 H11        25.2756   26.3901   46.0880 H           1 MOL       0.0591
     26 H12        23.5121   28.9293   48.9610 H           1 MOL       0.0588
     27 H13        24.4360   26.7653   48.3486 H           1 MOL       0.0799
@<TRIPOS>BOND
     1     1     2   1
     2     1     3   1
     3     1     4   1
     4     1     5   1
     5     2     6  ar
     6     2     7  ar
     7     3     8  am
     8     3     9   2
     9     4    10   1
    10     5    11   1
    11     6     8   1
    12     6    12  ar
    13     7    13  ar
    14    10    11   1
    15    12    14  ar
    16    13    14  ar
    17     4    15   1
    18     4    16   1
    19     5    17   1
    20     5    18   1
    21     7    19   1
    22     8    20   1
    23    10    21   1
    24    10    22   1
    25    11    23   1
    26    11    24   1
    27    12    25   1
    28    13    26   1
    29    14    27   1
@<TRIPOS>SUBSTRUCTURE
     1  MOL      1

