@<TRIPOS>MOLECULE
3udh_ligand_001
    27    29
SMALL
GAST_HUCK
****
This file was generated by PARSER (from files_GN.cpp)

@<TRIPOS>ATOM
      1 C1         19.9683   35.7582   41.4293 C.3         1 MOL       0.0781
      2 C2         18.6536   35.4849   42.0586 C.ar        1 MOL      -0.0219
      3 C3         20.2120   37.0845   41.9907 C.2         1 MOL       0.2144
      4 C4         21.0773   34.7270   41.7677 C.3         1 MOL      -0.0294
      5 C5         19.9597   35.7760   39.8811 C.3         1 MOL      -0.0531
      6 C6         18.2820   36.5744   42.8442 C.ar        1 MOL       0.0939
      7 C7         17.7998   34.3640   41.9705 C.ar        1 MOL      -0.0552
      8 N1         19.2320   37.5006   42.7652 N.am        1 MOL      -0.2200
      9 O1         21.1862   37.7783   41.7434 O.2         1 MOL      -0.3196
     10 C8         22.0685   34.8411   40.5934 C.3         1 MOL      -0.0449
     11 N2         21.3084   35.3728   39.4493 N.4         1 MOL       0.2177
     12 C9         17.0808   36.5922   43.5737 C.ar        1 MOL      -0.0098
     13 C10        16.5927   34.3598   42.6985 C.ar        1 MOL      -0.0486
     14 C11        16.2372   35.4661   43.5020 C.ar        1 MOL      -0.0475
     15 H1         20.6686   33.7108   41.7916 H           1 MOL       0.0183
     16 H2         21.5607   34.9281   42.7300 H           1 MOL       0.0183
     17 H3         19.7092   36.7534   39.4580 H           1 MOL       0.0667
     18 H4         19.2490   35.0480   39.4995 H           1 MOL       0.0667
     19 H5         18.0582   33.5590   41.3957 H           1 MOL       0.0771
     20 H6         19.1886   38.3621   43.2033 H           1 MOL       0.2404
     21 H7         22.5075   33.8781   40.3326 H           1 MOL       0.0802
     22 H8         22.8779   35.5369   40.8460 H           1 MOL       0.0802
     23 H9         21.8244   36.1521   39.0352 H           1 MOL       0.2001
     24 H10        21.2047   34.6562   38.7302 H           1 MOL       0.2001
     25 H11        16.8292   37.4003   44.1459 H           1 MOL       0.0591
     26 H12        15.9692   33.5522   42.6513 H           1 MOL       0.0588
     27 H13        15.3655   35.4471   44.0370 H           1 MOL       0.0799
@<TRIPOS>BOND
     1     1     2   1
     2     1     3   1
     3     1     4   1
     4     1     5   1
     5     2     6  ar
     6     2     7  ar
     7     3     8  am
     8     3     9   2
     9     4    10   1
    10     5    11   1
    11     6     8   1
    12     6    12  ar
    13     7    13  ar
    14    10    11   1
    15    12    14  ar
    16    13    14  ar
    17     4    15   1
    18     4    16   1
    19     5    17   1
    20     5    18   1
    21     7    19   1
    22     8    20   1
    23    10    21   1
    24    10    22   1
    25    11    23   1
    26    11    24   1
    27    12    25   1
    28    13    26   1
    29    14    27   1
@<TRIPOS>SUBSTRUCTURE
     1  MOL      1

