@<TRIPOS>MOLECULE
3udh_ligand_018
    27    29
SMALL
GAST_HUCK
****
This file was generated by PARSER (from files_GN.cpp)

@<TRIPOS>ATOM
      1 C1         22.5924   31.7393   45.2601 C.3         1 MOL       0.0781
      2 C2         23.3678   30.5328   44.8862 C.ar        1 MOL      -0.0219
      3 C3         22.4883   31.4850   46.6952 C.2         1 MOL       0.2144
      4 C4         23.3084   33.0746   44.8978 C.3         1 MOL      -0.0294
      5 C5         21.2123   31.8189   44.5459 C.3         1 MOL      -0.0531
      6 C6         23.6101   29.7569   46.0192 C.ar        1 MOL       0.0939
      7 C7         23.8320   30.1047   43.6262 C.ar        1 MOL      -0.0552
      8 N1         23.0697   30.3676   47.0720 N.am        1 MOL      -0.2200
      9 O1         21.9234   32.2193   47.4933 O.2         1 MOL      -0.3196
     10 C8         22.2606   33.8754   44.1035 C.3         1 MOL      -0.0449
     11 N2         21.3656   32.8645   43.5284 N.4         1 MOL       0.2177
     12 C9         24.3047   28.5374   45.9423 C.ar        1 MOL      -0.0098
     13 C10        24.5320   28.8841   43.5296 C.ar        1 MOL      -0.0486
     14 C11        24.7639   28.1016   44.6821 C.ar        1 MOL      -0.0475
     15 H1         24.1847   32.9060   44.2640 H           1 MOL       0.0183
     16 H2         23.6312   33.6399   45.7777 H           1 MOL       0.0183
     17 H3         20.4154   32.1229   45.2313 H           1 MOL       0.0667
     18 H4         20.9171   30.8806   44.0704 H           1 MOL       0.0667
     19 H5         23.6604   30.6695   42.7918 H           1 MOL       0.0771
     20 H6         23.0928   30.0316   47.9818 H           1 MOL       0.2404
     21 H7         22.7182   34.4793   43.3172 H           1 MOL       0.0802
     22 H8         21.6909   34.5291   44.7705 H           1 MOL       0.0802
     23 H9         20.4598   33.2736   43.2867 H           1 MOL       0.2001
     24 H10        21.7927   32.4593   42.6915 H           1 MOL       0.2001
     25 H11        24.4671   27.9760   46.7807 H           1 MOL       0.0591
     26 H12        24.8715   28.5643   42.6202 H           1 MOL       0.0588
     27 H13        25.2658   27.2145   44.6027 H           1 MOL       0.0799
@<TRIPOS>BOND
     1     1     2   1
     2     1     3   1
     3     1     4   1
     4     1     5   1
     5     2     6  ar
     6     2     7  ar
     7     3     8  am
     8     3     9   2
     9     4    10   1
    10     5    11   1
    11     6     8   1
    12     6    12  ar
    13     7    13  ar
    14    10    11   1
    15    12    14  ar
    16    13    14  ar
    17     4    15   1
    18     4    16   1
    19     5    17   1
    20     5    18   1
    21     7    19   1
    22     8    20   1
    23    10    21   1
    24    10    22   1
    25    11    23   1
    26    11    24   1
    27    12    25   1
    28    13    26   1
    29    14    27   1
@<TRIPOS>SUBSTRUCTURE
     1  MOL      1

