@<TRIPOS>MOLECULE
3udh_ligand_063
    27    29
SMALL
GAST_HUCK
****
This file was generated by PARSER (from files_GN.cpp)

@<TRIPOS>ATOM
      1 C1         29.9159   35.6565   43.6423 C.3         1 MOL       0.0781
      2 C2         30.5540   34.3315   43.4590 C.ar        1 MOL      -0.0219
      3 C3         31.0959   36.4066   44.0775 C.2         1 MOL       0.2144
      4 C4         29.2342   36.2357   42.3796 C.3         1 MOL      -0.0294
      5 C5         28.7581   35.6667   44.6679 C.3         1 MOL      -0.0531
      6 C6         31.9129   34.4212   43.7741 C.ar        1 MOL       0.0939
      7 C7         30.0047   33.1015   43.0431 C.ar        1 MOL      -0.0552
      8 N1         32.1836   35.6759   44.1356 N.am        1 MOL      -0.2200
      9 O1         31.1097   37.5913   44.3766 O.2         1 MOL      -0.3196
     10 C8         28.1677   37.2064   42.9361 C.3         1 MOL      -0.0449
     11 N2         27.9044   36.8148   44.3322 N.4         1 MOL       0.2177
     12 C9         32.7677   33.3130   43.6636 C.ar        1 MOL      -0.0098
     13 C10        30.8518   31.9765   42.9356 C.ar        1 MOL      -0.0486
     14 C11        32.2248   32.0819   43.2433 C.ar        1 MOL      -0.0475
     15 H1         28.7336   35.4358   41.8212 H           1 MOL       0.0183
     16 H2         29.9346   36.7386   41.7057 H           1 MOL       0.0183
     17 H3         29.1066   35.7413   45.6996 H           1 MOL       0.0667
     18 H4         28.1503   34.7652   44.5602 H           1 MOL       0.0667
     19 H5         29.0138   33.0247   42.8185 H           1 MOL       0.0771
     20 H6         33.0639   35.9897   44.3978 H           1 MOL       0.2404
     21 H7         27.2513   37.1687   42.3402 H           1 MOL       0.0802
     22 H8         28.5438   38.2286   42.9392 H           1 MOL       0.0802
     23 H9         28.1348   37.5955   44.9504 H           1 MOL       0.2001
     24 H10        26.9187   36.5636   44.4584 H           1 MOL       0.2001
     25 H11        33.7590   33.3984   43.8814 H           1 MOL       0.0591
     26 H12        30.4653   31.0818   42.6257 H           1 MOL       0.0588
     27 H13        32.8295   31.2627   43.1539 H           1 MOL       0.0799
@<TRIPOS>BOND
     1     1     2   1
     2     1     3   1
     3     1     4   1
     4     1     5   1
     5     2     6  ar
     6     2     7  ar
     7     3     8  am
     8     3     9   2
     9     4    10   1
    10     5    11   1
    11     6     8   1
    12     6    12  ar
    13     7    13  ar
    14    10    11   1
    15    12    14  ar
    16    13    14  ar
    17     4    15   1
    18     4    16   1
    19     5    17   1
    20     5    18   1
    21     7    19   1
    22     8    20   1
    23    10    21   1
    24    10    22   1
    25    11    23   1
    26    11    24   1
    27    12    25   1
    28    13    26   1
    29    14    27   1
@<TRIPOS>SUBSTRUCTURE
     1  MOL      1

