@<TRIPOS>MOLECULE
3udh_ligand_048
    27    29
SMALL
GAST_HUCK
****
This file was generated by PARSER (from files_GN.cpp)

@<TRIPOS>ATOM
      1 C1         16.7482   34.5199   43.6841 C.3         1 MOL       0.0781
      2 C2         16.6517   35.9269   44.1260 C.ar        1 MOL      -0.0219
      3 C3         17.1748   34.7501   42.3042 C.2         1 MOL       0.2144
      4 C4         17.7411   33.6586   44.4985 C.3         1 MOL      -0.0294
      5 C5         15.4256   33.7239   43.7963 C.3         1 MOL      -0.0531
      6 C6         17.0001   36.7715   43.0728 C.ar        1 MOL       0.0939
      7 C7         16.2823   36.4673   45.3754 C.ar        1 MOL      -0.0552
      8 N1         17.3059   36.0244   42.0128 N.am        1 MOL      -0.2200
      9 O1         17.4076   33.8731   41.4854 O.2         1 MOL      -0.3196
     10 C8         17.2324   32.2187   44.2921 C.3         1 MOL      -0.0449
     11 N2         15.8119   32.3073   43.9052 N.4         1 MOL       0.2177
     12 C9         16.9945   38.1699   43.2214 C.ar        1 MOL      -0.0098
     13 C10        16.2729   37.8683   45.5413 C.ar        1 MOL      -0.0486
     14 C11        16.6266   38.7144   44.4678 C.ar        1 MOL      -0.0475
     15 H1         17.6870   33.9085   45.5622 H           1 MOL       0.0183
     16 H2         18.7779   33.7737   44.1678 H           1 MOL       0.0183
     17 H3         14.7630   33.8774   42.9400 H           1 MOL       0.0667
     18 H4         14.8850   33.9963   44.7059 H           1 MOL       0.0667
     19 H5         16.0241   35.8554   46.1514 H           1 MOL       0.0771
     20 H6         17.5849   36.3710   41.1502 H           1 MOL       0.2404
     21 H7         17.3417   31.6253   45.2022 H           1 MOL       0.0802
     22 H8         17.7885   31.7335   43.4870 H           1 MOL       0.0802
     23 H9         15.6823   31.8495   42.9998 H           1 MOL       0.2001
     24 H10        15.2251   31.8439   44.6051 H           1 MOL       0.2001
     25 H11        17.2521   38.7763   42.4401 H           1 MOL       0.0591
     26 H12        16.0081   38.2705   46.4430 H           1 MOL       0.0588
     27 H13        16.6149   39.7291   44.5967 H           1 MOL       0.0799
@<TRIPOS>BOND
     1     1     2   1
     2     1     3   1
     3     1     4   1
     4     1     5   1
     5     2     6  ar
     6     2     7  ar
     7     3     8  am
     8     3     9   2
     9     4    10   1
    10     5    11   1
    11     6     8   1
    12     6    12  ar
    13     7    13  ar
    14    10    11   1
    15    12    14  ar
    16    13    14  ar
    17     4    15   1
    18     4    16   1
    19     5    17   1
    20     5    18   1
    21     7    19   1
    22     8    20   1
    23    10    21   1
    24    10    22   1
    25    11    23   1
    26    11    24   1
    27    12    25   1
    28    13    26   1
    29    14    27   1
@<TRIPOS>SUBSTRUCTURE
     1  MOL      1

