@<TRIPOS>MOLECULE
3udh_ligand_088
    27    29
SMALL
GAST_HUCK
****
This file was generated by PARSER (from files_GN.cpp)

@<TRIPOS>ATOM
      1 C1         28.4591   33.5486   40.4694 C.3         1 MOL       0.0781
      2 C2         29.5152   32.7552   41.1347 C.ar        1 MOL      -0.0219
      3 C3         27.5934   33.7718   41.6294 C.2         1 MOL       0.2144
      4 C4         28.9490   34.8587   39.8067 C.3         1 MOL      -0.0294
      5 C5         27.7605   32.8190   39.2958 C.3         1 MOL      -0.0531
      6 C6         29.2094   32.6055   42.4868 C.ar        1 MOL       0.0939
      7 C7         30.6953   32.1874   40.6138 C.ar        1 MOL      -0.0552
      8 N1         28.0578   33.2262   42.7337 N.am        1 MOL      -0.2200
      9 O1         26.5486   34.4058   41.6134 O.2         1 MOL      -0.3196
     10 C8         27.8936   35.1539   38.7267 C.3         1 MOL      -0.0449
     11 N2         27.2272   33.8771   38.4213 N.4         1 MOL       0.2177
     12 C9         30.0526   31.8955   43.3587 C.ar        1 MOL      -0.0098
     13 C10        31.5572   31.4762   41.4742 C.ar        1 MOL      -0.0486
     14 C11        31.2352   31.3280   42.8408 C.ar        1 MOL      -0.0475
     15 H1         29.9117   34.7043   39.3113 H           1 MOL       0.0183
     16 H2         29.0462   35.6880   40.5141 H           1 MOL       0.0183
     17 H3         26.9596   32.1532   39.6300 H           1 MOL       0.0667
     18 H4         28.4780   32.2327   38.7147 H           1 MOL       0.0667
     19 H5         30.9296   32.2987   39.6271 H           1 MOL       0.0771
     20 H6         27.6432   33.2762   43.6116 H           1 MOL       0.2404
     21 H7         28.3568   35.5649   37.8264 H           1 MOL       0.0802
     22 H8         27.1508   35.8618   39.1014 H           1 MOL       0.0802
     23 H9         26.2264   33.9727   38.5908 H           1 MOL       0.2001
     24 H10        27.3795   33.6258   37.4419 H           1 MOL       0.2001
     25 H11        29.8140   31.7943   44.3473 H           1 MOL       0.0591
     26 H12        32.4173   31.0647   41.1044 H           1 MOL       0.0588
     27 H13        31.8625   30.8080   43.4580 H           1 MOL       0.0799
@<TRIPOS>BOND
     1     1     2   1
     2     1     3   1
     3     1     4   1
     4     1     5   1
     5     2     6  ar
     6     2     7  ar
     7     3     8  am
     8     3     9   2
     9     4    10   1
    10     5    11   1
    11     6     8   1
    12     6    12  ar
    13     7    13  ar
    14    10    11   1
    15    12    14  ar
    16    13    14  ar
    17     4    15   1
    18     4    16   1
    19     5    17   1
    20     5    18   1
    21     7    19   1
    22     8    20   1
    23    10    21   1
    24    10    22   1
    25    11    23   1
    26    11    24   1
    27    12    25   1
    28    13    26   1
    29    14    27   1
@<TRIPOS>SUBSTRUCTURE
     1  MOL      1

