@<TRIPOS>MOLECULE
3udh_ligand_065
    27    29
SMALL
GAST_HUCK
****
This file was generated by PARSER (from files_GN.cpp)

@<TRIPOS>ATOM
      1 C1         25.9598   36.1019   41.4245 C.3         1 MOL       0.0781
      2 C2         26.7489   35.1246   40.6317 C.ar        1 MOL      -0.0219
      3 C3         26.3315   37.3105   40.6919 C.2         1 MOL       0.2144
      4 C4         24.4286   35.8074   41.4190 C.3         1 MOL      -0.0294
      5 C5         26.3604   36.1382   42.9237 C.3         1 MOL      -0.0531
      6 C6         27.4315   35.7856   39.6112 C.ar        1 MOL       0.0939
      7 C7         26.8844   33.7290   40.7792 C.ar        1 MOL      -0.0552
      8 N1         27.1504   37.0857   39.6892 N.am        1 MOL      -0.2200
      9 O1         25.9233   38.4337   40.9542 O.2         1 MOL      -0.3196
     10 C8         24.0249   35.8109   42.9022 C.3         1 MOL      -0.0449
     11 N2         25.2519   35.4909   43.6364 N.4         1 MOL       0.2177
     12 C9         28.2582   35.0961   38.7081 C.ar        1 MOL      -0.0098
     13 C10        27.7094   33.0176   39.8828 C.ar        1 MOL      -0.0486
     14 C11        28.3926   33.6989   38.8523 C.ar        1 MOL      -0.0475
     15 H1         24.2082   34.8248   40.9869 H           1 MOL       0.0183
     16 H2         23.8506   36.5577   40.8663 H           1 MOL       0.0183
     17 H3         26.4512   37.1642   43.2988 H           1 MOL       0.0667
     18 H4         27.2962   35.6134   43.1361 H           1 MOL       0.0667
     19 H5         26.3891   33.2373   41.5259 H           1 MOL       0.0771
     20 H6         27.4998   37.7687   39.0936 H           1 MOL       0.2404
     21 H7         23.2496   35.0712   43.1120 H           1 MOL       0.0802
     22 H8         23.6670   36.8000   43.2043 H           1 MOL       0.0802
     23 H9         25.1955   35.8302   44.6014 H           1 MOL       0.2001
     24 H10        25.3959   34.4753   43.6345 H           1 MOL       0.2001
     25 H11        28.7504   35.5934   37.9619 H           1 MOL       0.0591
     26 H12        27.8125   32.0067   39.9804 H           1 MOL       0.0588
     27 H13        28.9907   33.1770   38.2044 H           1 MOL       0.0799
@<TRIPOS>BOND
     1     1     2   1
     2     1     3   1
     3     1     4   1
     4     1     5   1
     5     2     6  ar
     6     2     7  ar
     7     3     8  am
     8     3     9   2
     9     4    10   1
    10     5    11   1
    11     6     8   1
    12     6    12  ar
    13     7    13  ar
    14    10    11   1
    15    12    14  ar
    16    13    14  ar
    17     4    15   1
    18     4    16   1
    19     5    17   1
    20     5    18   1
    21     7    19   1
    22     8    20   1
    23    10    21   1
    24    10    22   1
    25    11    23   1
    26    11    24   1
    27    12    25   1
    28    13    26   1
    29    14    27   1
@<TRIPOS>SUBSTRUCTURE
     1  MOL      1

