@<TRIPOS>MOLECULE
3udh_ligand_021
    27    29
SMALL
GAST_HUCK
****
This file was generated by PARSER (from files_GN.cpp)

@<TRIPOS>ATOM
      1 C1         17.9699   37.5156   45.6328 C.3         1 MOL       0.0781
      2 C2         17.5307   38.0952   44.3463 C.ar        1 MOL      -0.0219
      3 C3         19.2755   37.0203   45.2124 C.2         1 MOL       0.2144
      4 C4         18.0189   38.5306   46.8005 C.3         1 MOL      -0.0294
      5 C5         17.0667   36.3970   46.1968 C.3         1 MOL      -0.0531
      6 C6         18.5181   37.8976   43.3794 C.ar        1 MOL       0.0939
      7 C7         16.3597   38.8057   44.0068 C.ar        1 MOL      -0.0552
      8 N1         19.5293   37.2363   43.9415 N.am        1 MOL      -0.2200
      9 O1         20.0536   36.4107   45.9286 O.2         1 MOL      -0.3196
     10 C8         17.8353   37.6712   48.0717 C.3         1 MOL      -0.0449
     11 N2         17.3701   36.3382   47.6373 N.4         1 MOL       0.2177
     12 C9         18.3779   38.3666   42.0607 C.ar        1 MOL      -0.0098
     13 C10        16.1961   39.2867   42.6901 C.ar        1 MOL      -0.0486
     14 C11        17.2033   39.0682   41.7219 C.ar        1 MOL      -0.0475
     15 H1         17.1881   39.2390   46.7387 H           1 MOL       0.0183
     16 H2         18.9483   39.0985   46.8272 H           1 MOL       0.0183
     17 H3         17.2437   35.4249   45.7362 H           1 MOL       0.0667
     18 H4         16.0058   36.6518   46.0841 H           1 MOL       0.0667
     19 H5         15.6410   38.9803   44.7089 H           1 MOL       0.0771
     20 H6         20.3430   36.9736   43.4844 H           1 MOL       0.2404
     21 H7         17.1007   38.1205   48.7517 H           1 MOL       0.0802
     22 H8         18.7867   37.5689   48.6091 H           1 MOL       0.0802
     23 H9         18.1188   35.6516   47.8208 H           1 MOL       0.2001
     24 H10        16.5327   36.0711   48.1699 H           1 MOL       0.2001
     25 H11        19.1137   38.2148   41.3646 H           1 MOL       0.0591
     26 H12        15.3431   39.7932   42.4332 H           1 MOL       0.0588
     27 H13        17.0828   39.4358   40.7691 H           1 MOL       0.0799
@<TRIPOS>BOND
     1     1     2   1
     2     1     3   1
     3     1     4   1
     4     1     5   1
     5     2     6  ar
     6     2     7  ar
     7     3     8  am
     8     3     9   2
     9     4    10   1
    10     5    11   1
    11     6     8   1
    12     6    12  ar
    13     7    13  ar
    14    10    11   1
    15    12    14  ar
    16    13    14  ar
    17     4    15   1
    18     4    16   1
    19     5    17   1
    20     5    18   1
    21     7    19   1
    22     8    20   1
    23    10    21   1
    24    10    22   1
    25    11    23   1
    26    11    24   1
    27    12    25   1
    28    13    26   1
    29    14    27   1
@<TRIPOS>SUBSTRUCTURE
     1  MOL      1

