@<TRIPOS>MOLECULE
3udh_ligand_050
    27    29
SMALL
GAST_HUCK
****
This file was generated by PARSER (from files_GN.cpp)

@<TRIPOS>ATOM
      1 C1         31.2779   34.1604   47.8764 C.3         1 MOL       0.0781
      2 C2         30.3654   34.4992   48.9915 C.ar        1 MOL      -0.0219
      3 C3         30.8619   35.1935   46.9280 C.2         1 MOL       0.2144
      4 C4         32.7815   34.2255   48.2323 C.3         1 MOL      -0.0294
      5 C5         31.1249   32.7243   47.3205 C.3         1 MOL      -0.0531
      6 C6         29.5843   35.5986   48.6354 C.ar        1 MOL       0.0939
      7 C7         30.2011   33.9037   50.2595 C.ar        1 MOL      -0.0552
      8 N1         29.9167   35.9744   47.4007 N.am        1 MOL      -0.2200
      9 O1         31.3296   35.3501   45.8091 O.2         1 MOL      -0.3196
     10 C8         33.4499   33.3128   47.1857 C.3         1 MOL      -0.0449
     11 N2         32.4077   32.4050   46.6723 N.4         1 MOL       0.2177
     12 C9         28.6267   36.1376   49.5105 C.ar        1 MOL      -0.0098
     13 C10        29.2438   34.4323   51.1514 C.ar        1 MOL      -0.0486
     14 C11        28.4592   35.5447   50.7767 C.ar        1 MOL      -0.0475
     15 H1         32.9598   33.8142   49.2309 H           1 MOL       0.0183
     16 H2         33.1847   35.2429   48.1982 H           1 MOL       0.0183
     17 H3         30.3023   32.6322   46.6062 H           1 MOL       0.0667
     18 H4         30.9660   32.0064   48.1290 H           1 MOL       0.0667
     19 H5         30.7678   33.0977   50.5347 H           1 MOL       0.0771
     20 H6         29.5244   36.7230   46.9263 H           1 MOL       0.2404
     21 H7         34.2691   32.7405   47.6257 H           1 MOL       0.0802
     22 H8         33.8381   33.9060   46.3562 H           1 MOL       0.0802
     23 H9         32.3210   32.5334   45.6617 H           1 MOL       0.2001
     24 H10        32.6601   31.4333   46.8671 H           1 MOL       0.2001
     25 H11        28.0633   36.9442   49.2286 H           1 MOL       0.0591
     26 H12        29.1197   34.0111   52.0728 H           1 MOL       0.0588
     27 H13        27.7669   35.9215   51.4257 H           1 MOL       0.0799
@<TRIPOS>BOND
     1     1     2   1
     2     1     3   1
     3     1     4   1
     4     1     5   1
     5     2     6  ar
     6     2     7  ar
     7     3     8  am
     8     3     9   2
     9     4    10   1
    10     5    11   1
    11     6     8   1
    12     6    12  ar
    13     7    13  ar
    14    10    11   1
    15    12    14  ar
    16    13    14  ar
    17     4    15   1
    18     4    16   1
    19     5    17   1
    20     5    18   1
    21     7    19   1
    22     8    20   1
    23    10    21   1
    24    10    22   1
    25    11    23   1
    26    11    24   1
    27    12    25   1
    28    13    26   1
    29    14    27   1
@<TRIPOS>SUBSTRUCTURE
     1  MOL      1

