@<TRIPOS>MOLECULE
3udh_ligand_025
    27    29
SMALL
GAST_HUCK
****
This file was generated by PARSER (from files_GN.cpp)

@<TRIPOS>ATOM
      1 C1         16.5757   38.3027   47.1979 C.3         1 MOL       0.0781
      2 C2         15.7457   37.6358   48.2255 C.ar        1 MOL      -0.0219
      3 C3         17.8118   37.5413   47.3884 C.2         1 MOL       0.2144
      4 C4         16.0216   38.2256   45.7559 C.3         1 MOL      -0.0294
      5 C5         16.7523   39.8265   47.4132 C.3         1 MOL      -0.0531
      6 C6         16.4998   36.6551   48.8704 C.ar        1 MOL       0.0939
      7 C7         14.4062   37.8575   48.6076 C.ar        1 MOL      -0.0552
      8 N1         17.7198   36.6390   48.3384 N.am        1 MOL      -0.2200
      9 O1         18.8406   37.6857   46.7437 O.2         1 MOL      -0.3196
     10 C8         16.6983   39.4147   45.0457 C.3         1 MOL      -0.0449
     11 N2         17.0562   40.3936   46.0894 N.4         1 MOL       0.2177
     12 C9         15.9618   35.8706   49.9039 C.ar        1 MOL      -0.0098
     13 C10        13.8479   37.0780   49.6431 C.ar        1 MOL      -0.0486
     14 C11        14.6233   36.0893   50.2883 C.ar        1 MOL      -0.0475
     15 H1         14.9377   38.3754   45.7508 H           1 MOL       0.0183
     16 H2         16.2461   37.2760   45.2606 H           1 MOL       0.0183
     17 H3         17.5480   40.0638   48.1235 H           1 MOL       0.0667
     18 H4         15.8227   40.2808   47.7686 H           1 MOL       0.0667
     19 H5         13.8451   38.5758   48.1447 H           1 MOL       0.0771
     20 H6         18.4338   36.0413   48.6060 H           1 MOL       0.2404
     21 H7         16.0302   39.8685   44.3095 H           1 MOL       0.0802
     22 H8         17.6100   39.0882   44.5410 H           1 MOL       0.0802
     23 H9         18.0554   40.6078   46.0381 H           1 MOL       0.2001
     24 H10        16.5228   41.2549   45.9562 H           1 MOL       0.2001
     25 H11        16.5301   35.1600   50.3672 H           1 MOL       0.0591
     26 H12        12.8783   37.2331   49.9305 H           1 MOL       0.0588
     27 H13        14.2122   35.5296   51.0387 H           1 MOL       0.0799
@<TRIPOS>BOND
     1     1     2   1
     2     1     3   1
     3     1     4   1
     4     1     5   1
     5     2     6  ar
     6     2     7  ar
     7     3     8  am
     8     3     9   2
     9     4    10   1
    10     5    11   1
    11     6     8   1
    12     6    12  ar
    13     7    13  ar
    14    10    11   1
    15    12    14  ar
    16    13    14  ar
    17     4    15   1
    18     4    16   1
    19     5    17   1
    20     5    18   1
    21     7    19   1
    22     8    20   1
    23    10    21   1
    24    10    22   1
    25    11    23   1
    26    11    24   1
    27    12    25   1
    28    13    26   1
    29    14    27   1
@<TRIPOS>SUBSTRUCTURE
     1  MOL      1

