@<TRIPOS>MOLECULE
3udh_ligand_058
    27    29
SMALL
GAST_HUCK
****
This file was generated by PARSER (from files_GN.cpp)

@<TRIPOS>ATOM
      1 C1         32.9154   35.4360   46.6017 C.3         1 MOL       0.0781
      2 C2         33.1594   35.6212   48.0494 C.ar        1 MOL      -0.0219
      3 C3         32.8941   33.9730   46.5694 C.2         1 MOL       0.2144
      4 C4         31.6106   36.0813   46.0783 C.3         1 MOL      -0.0294
      5 C5         33.9966   36.0539   45.6813 C.3         1 MOL      -0.0531
      6 C6         33.2468   34.3762   48.6722 C.ar        1 MOL       0.0939
      7 C7         33.3034   36.8001   48.8089 C.ar        1 MOL      -0.0552
      8 N1         33.0823   33.4286   47.7505 N.am        1 MOL      -0.2200
      9 O1         32.7286   33.2968   45.5645 O.2         1 MOL      -0.3196
     10 C8         31.8764   36.2884   44.5736 C.3         1 MOL      -0.0449
     11 N2         33.3386   36.2867   44.3854 N.4         1 MOL       0.2177
     12 C9         33.4765   34.2578   50.0542 C.ar        1 MOL      -0.0098
     13 C10        33.5337   36.7004   50.1978 C.ar        1 MOL      -0.0486
     14 C11        33.6192   35.4344   50.8169 C.ar        1 MOL      -0.0475
     15 H1         31.4472   37.0554   46.5487 H           1 MOL       0.0183
     16 H2         30.7258   35.4602   46.2513 H           1 MOL       0.0183
     17 H3         34.8687   35.4061   45.5573 H           1 MOL       0.0667
     18 H4         34.3341   37.0200   46.0658 H           1 MOL       0.0667
     19 H5         33.2411   37.7169   48.3622 H           1 MOL       0.0771
     20 H6         33.1042   32.4741   47.9251 H           1 MOL       0.2404
     21 H7         31.4520   37.2333   44.2245 H           1 MOL       0.0802
     22 H8         31.4442   35.4708   43.9921 H           1 MOL       0.0802
     23 H9         33.5946   35.5416   43.7344 H           1 MOL       0.2001
     24 H10        33.6405   37.1862   44.0053 H           1 MOL       0.2001
     25 H11        33.5376   33.3374   50.4950 H           1 MOL       0.0591
     26 H12        33.6374   37.5493   50.7578 H           1 MOL       0.0588
     27 H13        33.7851   35.3708   51.8236 H           1 MOL       0.0799
@<TRIPOS>BOND
     1     1     2   1
     2     1     3   1
     3     1     4   1
     4     1     5   1
     5     2     6  ar
     6     2     7  ar
     7     3     8  am
     8     3     9   2
     9     4    10   1
    10     5    11   1
    11     6     8   1
    12     6    12  ar
    13     7    13  ar
    14    10    11   1
    15    12    14  ar
    16    13    14  ar
    17     4    15   1
    18     4    16   1
    19     5    17   1
    20     5    18   1
    21     7    19   1
    22     8    20   1
    23    10    21   1
    24    10    22   1
    25    11    23   1
    26    11    24   1
    27    12    25   1
    28    13    26   1
    29    14    27   1
@<TRIPOS>SUBSTRUCTURE
     1  MOL      1

