@<TRIPOS>MOLECULE
3udh_ligand_024
    27    29
SMALL
GAST_HUCK
****
This file was generated by PARSER (from files_GN.cpp)

@<TRIPOS>ATOM
      1 C1         21.1161   36.3203   42.2668 C.3         1 MOL       0.0781
      2 C2         21.3781   35.3961   43.3930 C.ar        1 MOL      -0.0219
      3 C3         19.9953   37.0617   42.8444 C.2         1 MOL       0.2144
      4 C4         22.3121   37.2187   41.8715 C.3         1 MOL      -0.0294
      5 C5         20.7650   35.6454   40.9189 C.3         1 MOL      -0.0531
      6 C6         20.4809   35.6611   44.4273 C.ar        1 MOL       0.0939
      7 C7         22.3398   34.3739   43.5391 C.ar        1 MOL      -0.0552
      8 N1         19.6797   36.6570   44.0539 N.am        1 MOL      -0.2200
      9 O1         19.3777   37.9593   42.2886 O.2         1 MOL      -0.3196
     10 C8         21.9774   37.6675   40.4358 C.3         1 MOL      -0.0449
     11 N2         21.0631   36.6509   39.8835 N.4         1 MOL       0.2177
     12 C9         20.5008   34.9265   45.6260 C.ar        1 MOL      -0.0098
     13 C10        22.3779   33.6329   44.7379 C.ar        1 MOL      -0.0486
     14 C11        21.4634   33.9090   45.7794 C.ar        1 MOL      -0.0475
     15 H1         23.2413   36.6370   41.8546 H           1 MOL       0.0183
     16 H2         22.4490   38.0718   42.5380 H           1 MOL       0.0183
     17 H3         19.7199   35.3296   40.8576 H           1 MOL       0.0667
     18 H4         21.4062   34.7754   40.7427 H           1 MOL       0.0667
     19 H5         23.0002   34.1711   42.7855 H           1 MOL       0.0771
     20 H6         18.9620   37.0220   44.5955 H           1 MOL       0.2404
     21 H7         22.8781   37.7457   39.8204 H           1 MOL       0.0802
     22 H8         21.4688   38.6361   40.4459 H           1 MOL       0.0802
     23 H9         20.1950   37.1032   39.5841 H           1 MOL       0.2001
     24 H10        21.5047   36.2093   39.0757 H           1 MOL       0.2001
     25 H11        19.8306   35.1240   46.3710 H           1 MOL       0.0591
     26 H12        23.0698   32.8890   44.8534 H           1 MOL       0.0588
     27 H13        21.4953   33.3635   46.6441 H           1 MOL       0.0799
@<TRIPOS>BOND
     1     1     2   1
     2     1     3   1
     3     1     4   1
     4     1     5   1
     5     2     6  ar
     6     2     7  ar
     7     3     8  am
     8     3     9   2
     9     4    10   1
    10     5    11   1
    11     6     8   1
    12     6    12  ar
    13     7    13  ar
    14    10    11   1
    15    12    14  ar
    16    13    14  ar
    17     4    15   1
    18     4    16   1
    19     5    17   1
    20     5    18   1
    21     7    19   1
    22     8    20   1
    23    10    21   1
    24    10    22   1
    25    11    23   1
    26    11    24   1
    27    12    25   1
    28    13    26   1
    29    14    27   1
@<TRIPOS>SUBSTRUCTURE
     1  MOL      1

