@<TRIPOS>MOLECULE
3udh_ligand_079
    27    29
SMALL
GAST_HUCK
****
This file was generated by PARSER (from files_GN.cpp)

@<TRIPOS>ATOM
      1 C1         19.0854   34.6026   42.8294 C.3         1 MOL       0.0781
      2 C2         19.8259   33.9483   43.9309 C.ar        1 MOL      -0.0219
      3 C3         20.1878   34.7539   41.8804 C.2         1 MOL       0.2144
      4 C4         17.9070   33.7647   42.2783 C.3         1 MOL      -0.0294
      5 C5         18.4152   35.9492   43.1969 C.3         1 MOL      -0.0531
      6 C6         21.1569   33.7695   43.5548 C.ar        1 MOL       0.0939
      7 C7         19.3845   33.5049   45.1952 C.ar        1 MOL      -0.0552
      8 N1         21.3240   34.2696   42.3301 N.am        1 MOL      -0.2200
      9 O1         20.0987   35.2849   40.7819 O.2         1 MOL      -0.3196
     10 C8         16.9623   34.8127   41.6579 C.3         1 MOL      -0.0449
     11 N2         17.3128   36.1232   42.2340 N.4         1 MOL       0.2177
     12 C9         22.0850   33.1471   44.4073 C.ar        1 MOL      -0.0098
     13 C10        20.3033   32.8824   46.0643 C.ar        1 MOL      -0.0486
     14 C11        21.6470   32.7014   45.6710 C.ar        1 MOL      -0.0475
     15 H1         17.3854   33.2484   43.0908 H           1 MOL       0.0183
     16 H2         18.2233   33.0191   41.5416 H           1 MOL       0.0183
     17 H3         19.1055   36.7953   43.1489 H           1 MOL       0.0667
     18 H4         17.9846   35.9089   44.2009 H           1 MOL       0.0667
     19 H5         18.4116   33.6279   45.4796 H           1 MOL       0.0771
     20 H6         22.1649   34.2878   41.8472 H           1 MOL       0.2404
     21 H7         15.9186   34.5721   41.8712 H           1 MOL       0.0802
     22 H8         17.1024   34.8548   40.5745 H           1 MOL       0.0802
     23 H9         17.5957   36.7439   41.4702 H           1 MOL       0.2001
     24 H10        16.5040   36.5259   42.7142 H           1 MOL       0.2001
     25 H11        23.0558   33.0192   44.1132 H           1 MOL       0.0591
     26 H12        19.9953   32.5547   46.9822 H           1 MOL       0.0588
     27 H13        22.3076   32.2463   46.3050 H           1 MOL       0.0799
@<TRIPOS>BOND
     1     1     2   1
     2     1     3   1
     3     1     4   1
     4     1     5   1
     5     2     6  ar
     6     2     7  ar
     7     3     8  am
     8     3     9   2
     9     4    10   1
    10     5    11   1
    11     6     8   1
    12     6    12  ar
    13     7    13  ar
    14    10    11   1
    15    12    14  ar
    16    13    14  ar
    17     4    15   1
    18     4    16   1
    19     5    17   1
    20     5    18   1
    21     7    19   1
    22     8    20   1
    23    10    21   1
    24    10    22   1
    25    11    23   1
    26    11    24   1
    27    12    25   1
    28    13    26   1
    29    14    27   1
@<TRIPOS>SUBSTRUCTURE
     1  MOL      1

