@<TRIPOS>MOLECULE
3udh_ligand_009
    27    29
SMALL
GAST_HUCK
****
This file was generated by PARSER (from files_GN.cpp)

@<TRIPOS>ATOM
      1 C1         16.7659   35.0554   45.6707 C.3         1 MOL       0.0781
      2 C2         17.3099   34.2098   44.5823 C.ar        1 MOL      -0.0219
      3 C3         15.5986   34.2418   46.0050 C.2         1 MOL       0.2144
      4 C4         17.7432   35.2501   46.8667 C.3         1 MOL      -0.0294
      5 C5         16.3995   36.5011   45.2144 C.3         1 MOL      -0.0531
      6 C6         16.4923   33.0951   44.3961 C.ar        1 MOL       0.0939
      7 C7         18.4428   34.3991   43.7652 C.ar        1 MOL      -0.0552
      8 N1         15.4901   33.1534   45.2747 N.am        1 MOL      -0.2200
      9 O1         14.7972   34.5158   46.8866 O.2         1 MOL      -0.3196
     10 C8         17.6315   36.7480   47.2115 C.3         1 MOL      -0.0449
     11 N2         17.3279   37.3935   45.9293 N.4         1 MOL       0.2177
     12 C9         16.7596   32.1443   43.3962 C.ar        1 MOL      -0.0098
     13 C10        18.7319   33.4491   42.7630 C.ar        1 MOL      -0.0486
     14 C11        17.8916   32.3294   42.5761 C.ar        1 MOL      -0.0475
     15 H1         18.7785   35.0297   46.5794 H           1 MOL       0.0183
     16 H2         17.4930   34.6358   47.7412 H           1 MOL       0.0183
     17 H3         15.3746   36.7754   45.4990 H           1 MOL       0.0667
     18 H4         16.5093   36.6509   44.1332 H           1 MOL       0.0667
     19 H5         19.0439   35.2160   43.8938 H           1 MOL       0.0771
     20 H6         14.7972   32.4759   45.3781 H           1 MOL       0.2404
     21 H7         18.5615   37.1405   47.6279 H           1 MOL       0.0802
     22 H8         16.8149   36.9250   47.9204 H           1 MOL       0.0802
     23 H9         16.9040   38.3164   46.0777 H           1 MOL       0.2001
     24 H10        18.1932   37.4847   45.3855 H           1 MOL       0.2001
     25 H11        16.1377   31.3445   43.2618 H           1 MOL       0.0591
     26 H12        19.5479   33.5772   42.1613 H           1 MOL       0.0588
     27 H13        18.1052   31.6492   41.8438 H           1 MOL       0.0799
@<TRIPOS>BOND
     1     1     2   1
     2     1     3   1
     3     1     4   1
     4     1     5   1
     5     2     6  ar
     6     2     7  ar
     7     3     8  am
     8     3     9   2
     9     4    10   1
    10     5    11   1
    11     6     8   1
    12     6    12  ar
    13     7    13  ar
    14    10    11   1
    15    12    14  ar
    16    13    14  ar
    17     4    15   1
    18     4    16   1
    19     5    17   1
    20     5    18   1
    21     7    19   1
    22     8    20   1
    23    10    21   1
    24    10    22   1
    25    11    23   1
    26    11    24   1
    27    12    25   1
    28    13    26   1
    29    14    27   1
@<TRIPOS>SUBSTRUCTURE
     1  MOL      1

