@<TRIPOS>MOLECULE
3ueu_ligand_032
    37    36
SMALL
GAST_HUCK
****
This file was generated by PARSER (from files_GN.cpp)

@<TRIPOS>ATOM
      1 O1          1.2686    2.5062   20.7744 O.co2       1 DAO      -0.5690
      2 O2          1.9857    4.7125   20.9475 O.co2       1 DAO      -0.5690
      3 C1          1.3423    3.7500   20.2433 C.2         1 DAO       0.0348
      4 C2          0.7630    3.9862   18.8966 C.3         1 DAO       0.0002
      5 C3          0.5978    5.4620   18.4509 C.3         1 DAO      -0.0414
      6 C4         -0.1214    6.3664   19.5016 C.3         1 DAO      -0.0516
      7 C5         -1.1442    7.3434   18.8714 C.3         1 DAO      -0.0530
      8 C6         -1.6670    8.3834   19.9088 C.3         1 DAO      -0.0531
      9 C7         -2.9611    9.1143   19.4306 C.3         1 DAO      -0.0531
     10 C8         -3.2812   10.3617   20.3033 C.3         1 DAO      -0.0531
     11 C9         -4.7504   10.8739   20.2092 C.3         1 DAO      -0.0531
     12 C10        -5.2195   11.4404   18.8333 C.3         1 DAO      -0.0533
     13 C11        -4.3580   12.5951   18.2337 C.3         1 DAO      -0.0559
     14 C12        -3.5193   12.2022   16.9912 C.3         1 DAO      -0.0653
     15 H1         -0.2235    3.5017   18.8624 H           1 DAO       0.0430
     16 H2          1.4074    3.4796   18.1651 H           1 DAO       0.0430
     17 H3          0.0393    5.4561   17.5074 H           1 DAO       0.0283
     18 H4          1.5836    5.8843   18.2396 H           1 DAO       0.0283
     19 H5          0.6353    6.9357   20.0473 H           1 DAO       0.0266
     20 H6         -0.6720    5.7572   20.2251 H           1 DAO       0.0266
     21 H7         -1.9825    6.7547   18.4724 H           1 DAO       0.0265
     22 H8         -0.6830    7.8852   18.0363 H           1 DAO       0.0265
     23 H9         -0.8703    9.1184   20.0950 H           1 DAO       0.0265
     24 H10        -1.9000    7.8879   20.8625 H           1 DAO       0.0265
     25 H11        -3.8019    8.3984   19.4979 H           1 DAO       0.0265
     26 H12        -2.8390    9.4262   18.3830 H           1 DAO       0.0265
     27 H13        -2.6002   11.1813   20.0340 H           1 DAO       0.0265
     28 H14        -3.0962   10.0999   21.3558 H           1 DAO       0.0265
     29 H15        -4.8813   11.6603   20.9614 H           1 DAO       0.0265
     30 H16        -5.4235   10.0548   20.4877 H           1 DAO       0.0265
     31 H17        -6.2295   11.8287   18.9931 H           1 DAO       0.0265
     32 H18        -5.3092   10.6196   18.1147 H           1 DAO       0.0265
     33 H19        -3.6683   13.0080   18.9828 H           1 DAO       0.0263
     34 H20        -5.0208   13.4122   17.9221 H           1 DAO       0.0263
     35 H21        -2.9249   13.0657   16.6523 H           1 DAO       0.0230
     36 H22        -4.1850   11.8904   16.1699 H           1 DAO       0.0230
     37 H23        -2.8294   11.3822   17.2240 H           1 DAO       0.0230
@<TRIPOS>BOND
     1     1     3  ar
     2     3     2  ar
     3     3     4   1
     4     4     5   1
     5     5     6   1
     6     6     7   1
     7     7     8   1
     8     8     9   1
     9     9    10   1
    10    10    11   1
    11    11    12   1
    12    12    13   1
    13    13    14   1
    14     4    15   1
    15     4    16   1
    16     5    17   1
    17     5    18   1
    18     6    19   1
    19     6    20   1
    20     7    21   1
    21     7    22   1
    22     8    23   1
    23     8    24   1
    24     9    25   1
    25     9    26   1
    26    10    27   1
    27    10    28   1
    28    11    29   1
    29    11    30   1
    30    12    31   1
    31    12    32   1
    32    13    33   1
    33    13    34   1
    34    14    35   1
    35    14    36   1
    36    14    37   1
@<TRIPOS>SUBSTRUCTURE
     1  DAO      3

