@<TRIPOS>MOLECULE
3ueu_ligand_027
    37    36
SMALL
GAST_HUCK
****
This file was generated by PARSER (from files_GN.cpp)

@<TRIPOS>ATOM
      1 O1         -8.0723    1.3563   21.1373 O.co2       1 DAO      -0.5690
      2 O2         -7.9271    1.7839   18.8353 O.co2       1 DAO      -0.5690
      3 C1         -8.0554    2.2452   20.1082 C.2         1 DAO       0.0348
      4 C2         -8.0747    3.6979   20.3662 C.3         1 DAO       0.0002
      5 C3         -9.4940    4.2540   20.7007 C.3         1 DAO      -0.0414
      6 C4         -9.6382    4.7894   22.1635 C.3         1 DAO      -0.0516
      7 C5        -10.7676    5.8528   22.3113 C.3         1 DAO      -0.0530
      8 C6        -10.2789    7.2732   22.7442 C.3         1 DAO      -0.0531
      9 C7         -9.0254    7.7810   21.9654 C.3         1 DAO      -0.0531
     10 C8         -8.2500    8.9287   22.6785 C.3         1 DAO      -0.0531
     11 C9         -6.7679    9.0763   22.2154 C.3         1 DAO      -0.0531
     12 C10        -5.8643    9.7208   23.2942 C.3         1 DAO      -0.0533
     13 C11        -4.3917   10.0498   22.8818 C.3         1 DAO      -0.0559
     14 C12        -3.9457    9.4966   21.5018 C.3         1 DAO      -0.0653
     15 H1         -7.7019    4.2137   19.4636 H           1 DAO       0.0430
     16 H2         -7.3566    3.9129   21.1757 H           1 DAO       0.0430
     17 H3        -10.2532    3.4563   20.5405 H           1 DAO       0.0283
     18 H4         -9.7184    5.0654   19.9716 H           1 DAO       0.0283
     19 H5         -8.6858    5.2381   22.4710 H           1 DAO       0.0266
     20 H6         -9.8276    3.9261   22.8224 H           1 DAO       0.0266
     21 H7        -11.4752    5.4857   23.0668 H           1 DAO       0.0265
     22 H8        -11.3436    5.9454   21.3681 H           1 DAO       0.0265
     23 H9        -10.0711    7.2402   23.8295 H           1 DAO       0.0265
     24 H10       -11.1172    7.9714   22.5840 H           1 DAO       0.0265
     25 H11        -9.3519    8.1343   20.9797 H           1 DAO       0.0265
     26 H12        -8.3228    6.9431   21.8513 H           1 DAO       0.0265
     27 H13        -8.2889    8.7608   23.7714 H           1 DAO       0.0265
     28 H14        -8.7511    9.8945   22.4704 H           1 DAO       0.0265
     29 H15        -6.7104    9.6820   21.3197 H           1 DAO       0.0265
     30 H16        -6.3498    8.0863   21.9930 H           1 DAO       0.0265
     31 H17        -5.7923    9.0456   24.1540 H           1 DAO       0.0265
     32 H18        -6.3051   10.6630   23.6493 H           1 DAO       0.0265
     33 H19        -3.7183    9.6059   23.6388 H           1 DAO       0.0263
     34 H20        -4.2124   11.1391   22.9110 H           1 DAO       0.0263
     35 H21        -2.8675    9.6499   21.3729 H           1 DAO       0.0230
     36 H22        -4.4761   10.0306   20.6988 H           1 DAO       0.0230
     37 H23        -4.1674    8.4209   21.4427 H           1 DAO       0.0230
@<TRIPOS>BOND
     1     1     3  ar
     2     3     2  ar
     3     3     4   1
     4     4     5   1
     5     5     6   1
     6     6     7   1
     7     7     8   1
     8     8     9   1
     9     9    10   1
    10    10    11   1
    11    11    12   1
    12    12    13   1
    13    13    14   1
    14     4    15   1
    15     4    16   1
    16     5    17   1
    17     5    18   1
    18     6    19   1
    19     6    20   1
    20     7    21   1
    21     7    22   1
    22     8    23   1
    23     8    24   1
    24     9    25   1
    25     9    26   1
    26    10    27   1
    27    10    28   1
    28    11    29   1
    29    11    30   1
    30    12    31   1
    31    12    32   1
    32    13    33   1
    33    13    34   1
    34    14    35   1
    35    14    36   1
    36    14    37   1
@<TRIPOS>SUBSTRUCTURE
     1  DAO      3

