@<TRIPOS>MOLECULE
3ueu_ligand_013
    37    36
SMALL
GAST_HUCK
****
This file was generated by PARSER (from files_GN.cpp)

@<TRIPOS>ATOM
      1 O1         -2.0676    2.5336   20.4937 O.co2       1 DAO      -0.5690
      2 O2         -0.7397    3.8058   19.0662 O.co2       1 DAO      -0.5690
      3 C1         -1.2981    3.6280   20.2824 C.2         1 DAO       0.0348
      4 C2         -1.0670    4.5936   21.3724 C.3         1 DAO       0.0002
      5 C3         -2.2686    5.5551   21.5950 C.3         1 DAO      -0.0414
      6 C4         -2.3475    6.6974   20.5386 C.3         1 DAO      -0.0516
      7 C5         -3.6433    7.5529   20.6142 C.3         1 DAO      -0.0530
      8 C6         -3.6704    8.5475   21.8060 C.3         1 DAO      -0.0531
      9 C7         -5.0865    9.1215   22.1356 C.3         1 DAO      -0.0531
     10 C8         -5.3067   10.6213   21.7693 C.3         1 DAO      -0.0531
     11 C9         -6.2700   11.3777   22.7317 C.3         1 DAO      -0.0531
     12 C10        -5.5784   12.1312   23.9043 C.3         1 DAO      -0.0533
     13 C11        -5.0373   11.2353   25.0676 C.3         1 DAO      -0.0559
     14 C12        -5.3936   11.7304   26.4877 C.3         1 DAO      -0.0653
     15 H1         -0.1667    5.1777   21.1581 H           1 DAO       0.0430
     16 H2         -0.8774    4.0331   22.2910 H           1 DAO       0.0430
     17 H3         -2.1630    5.9998   22.5885 H           1 DAO       0.0283
     18 H4         -3.2010    4.9802   21.5961 H           1 DAO       0.0283
     19 H5         -2.3047    6.2545   19.5426 H           1 DAO       0.0266
     20 H6         -1.4779    7.3531   20.6516 H           1 DAO       0.0266
     21 H7         -4.4992    6.8760   20.6661 H           1 DAO       0.0265
     22 H8         -3.7371    8.1345   19.6933 H           1 DAO       0.0265
     23 H9         -2.9610    9.3532   21.5903 H           1 DAO       0.0265
     24 H10        -3.2980    8.0437   22.7030 H           1 DAO       0.0265
     25 H11        -5.2459    8.9693   23.2024 H           1 DAO       0.0265
     26 H12        -5.8735    8.5332   21.6508 H           1 DAO       0.0265
     27 H13        -5.7179   10.6565   20.7569 H           1 DAO       0.0265
     28 H14        -4.3602   11.1691   21.7286 H           1 DAO       0.0265
     29 H15        -7.0216   10.6943   23.1346 H           1 DAO       0.0265
     30 H16        -6.8144   12.1228   22.1479 H           1 DAO       0.0265
     31 H17        -6.3063   12.8402   24.3060 H           1 DAO       0.0265
     32 H18        -4.7560   12.7374   23.5105 H           1 DAO       0.0265
     33 H19        -3.9454   11.1494   24.9835 H           1 DAO       0.0263
     34 H20        -5.4473   10.2283   25.0027 H           1 DAO       0.0263
     35 H21        -5.0085   11.0255   27.2292 H           1 DAO       0.0230
     36 H22        -6.4789   11.7893   26.5963 H           1 DAO       0.0230
     37 H23        -4.9550   12.7142   26.6721 H           1 DAO       0.0230
@<TRIPOS>BOND
     1     1     3  ar
     2     3     2  ar
     3     3     4   1
     4     4     5   1
     5     5     6   1
     6     6     7   1
     7     7     8   1
     8     8     9   1
     9     9    10   1
    10    10    11   1
    11    11    12   1
    12    12    13   1
    13    13    14   1
    14     4    15   1
    15     4    16   1
    16     5    17   1
    17     5    18   1
    18     6    19   1
    19     6    20   1
    20     7    21   1
    21     7    22   1
    22     8    23   1
    23     8    24   1
    24     9    25   1
    25     9    26   1
    26    10    27   1
    27    10    28   1
    28    11    29   1
    29    11    30   1
    30    12    31   1
    31    12    32   1
    32    13    33   1
    33    13    34   1
    34    14    35   1
    35    14    36   1
    36    14    37   1
@<TRIPOS>SUBSTRUCTURE
     1  DAO      3

