@<TRIPOS>MOLECULE
3ueu_ligand_022
    37    36
SMALL
GAST_HUCK
****
This file was generated by PARSER (from files_GN.cpp)

@<TRIPOS>ATOM
      1 O1         -4.3457   15.7206   14.5957 O.co2       1 DAO      -0.5690
      2 O2         -3.8677   17.8029   15.5141 O.co2       1 DAO      -0.5690
      3 C1         -3.7498   16.4519   15.5678 C.2         1 DAO       0.0348
      4 C2         -3.0037   15.8172   16.6700 C.3         1 DAO       0.0002
      5 C3         -3.8979   15.0747   17.7116 C.3         1 DAO      -0.0414
      6 C4         -4.0633   13.5463   17.4719 C.3         1 DAO      -0.0516
      7 C5         -2.8375   12.6907   17.8987 C.3         1 DAO      -0.0530
      8 C6         -3.0101   11.1646   17.6550 C.3         1 DAO      -0.0531
      9 C7         -3.8482   10.3900   18.6971 C.3         1 DAO      -0.0531
     10 C8         -3.3516   10.5182   20.1634 C.3         1 DAO      -0.0531
     11 C9         -3.4630    9.1774   20.9498 C.3         1 DAO      -0.0531
     12 C10        -3.9817    9.2832   22.4218 C.3         1 DAO      -0.0533
     13 C11        -5.5341    9.2731   22.5865 C.3         1 DAO      -0.0559
     14 C12        -6.1780   10.6720   22.4470 C.3         1 DAO      -0.0653
     15 H1         -2.4475   16.6034   17.1972 H           1 DAO       0.0430
     16 H2         -2.2608   15.1374   16.2426 H           1 DAO       0.0430
     17 H3         -4.8843   15.5380   17.7334 H           1 DAO       0.0283
     18 H4         -3.4605   15.2190   18.7057 H           1 DAO       0.0283
     19 H5         -4.2839   13.3893   16.4179 H           1 DAO       0.0266
     20 H6         -4.9320   13.2249   18.0450 H           1 DAO       0.0266
     21 H7         -2.6161   12.8640   18.9501 H           1 DAO       0.0265
     22 H8         -1.9591   13.0077   17.3257 H           1 DAO       0.0265
     23 H9         -2.0219   10.7081   17.5931 H           1 DAO       0.0265
     24 H10        -3.4788   11.0218   16.6829 H           1 DAO       0.0265
     25 H11        -3.8384    9.3336   18.4124 H           1 DAO       0.0265
     26 H12        -4.8828   10.7172   18.6545 H           1 DAO       0.0265
     27 H13        -3.9252   11.2840   20.6819 H           1 DAO       0.0265
     28 H14        -2.3031   10.8096   20.1979 H           1 DAO       0.0265
     29 H15        -2.4607    8.7258   20.9935 H           1 DAO       0.0265
     30 H16        -4.1024    8.4667   20.4073 H           1 DAO       0.0265
     31 H17        -3.5665   10.1688   22.9112 H           1 DAO       0.0265
     32 H18        -3.6165    8.4084   22.9832 H           1 DAO       0.0265
     33 H19        -5.7784    8.8943   23.5844 H           1 DAO       0.0263
     34 H20        -5.9846    8.5992   21.8546 H           1 DAO       0.0263
     35 H21        -7.2693   10.5789   22.5448 H           1 DAO       0.0230
     36 H22        -5.9519   11.1226   21.4706 H           1 DAO       0.0230
     37 H23        -5.8190   11.3426   23.2395 H           1 DAO       0.0230
@<TRIPOS>BOND
     1     1     3  ar
     2     3     2  ar
     3     3     4   1
     4     4     5   1
     5     5     6   1
     6     6     7   1
     7     7     8   1
     8     8     9   1
     9     9    10   1
    10    10    11   1
    11    11    12   1
    12    12    13   1
    13    13    14   1
    14     4    15   1
    15     4    16   1
    16     5    17   1
    17     5    18   1
    18     6    19   1
    19     6    20   1
    20     7    21   1
    21     7    22   1
    22     8    23   1
    23     8    24   1
    24     9    25   1
    25     9    26   1
    26    10    27   1
    27    10    28   1
    28    11    29   1
    29    11    30   1
    30    12    31   1
    31    12    32   1
    32    13    33   1
    33    13    34   1
    34    14    35   1
    35    14    36   1
    36    14    37   1
@<TRIPOS>SUBSTRUCTURE
     1  DAO      3

