@<TRIPOS>MOLECULE
3ueu_ligand_003
    37    36
SMALL
GAST_HUCK
****
This file was generated by PARSER (from files_GN.cpp)

@<TRIPOS>ATOM
      1 O1         -0.4636   16.9179   18.4050 O.co2       1 DAO      -0.5690
      2 O2         -2.2171   17.0321   16.8937 O.co2       1 DAO      -0.5690
      3 C1         -1.6068   16.3957   17.9173 C.2         1 DAO       0.0348
      4 C2         -2.2058   15.1868   18.5164 C.3         1 DAO       0.0002
      5 C3         -2.1249   13.9676   17.5655 C.3         1 DAO      -0.0414
      6 C4         -2.6378   12.6384   18.1893 C.3         1 DAO      -0.0516
      7 C5         -1.6591   12.0247   19.2311 C.3         1 DAO      -0.0530
      8 C6         -2.1477   10.7102   19.8950 C.3         1 DAO      -0.0531
      9 C7         -3.3388   10.8724   20.8799 C.3         1 DAO      -0.0531
     10 C8         -3.7948    9.5183   21.5150 C.3         1 DAO      -0.0531
     11 C9         -4.0115    9.5285   23.0593 C.3         1 DAO      -0.0531
     12 C10        -5.4528    9.7978   23.5615 C.3         1 DAO      -0.0533
     13 C11        -6.2414   10.9393   22.8710 C.3         1 DAO      -0.0559
     14 C12        -6.0326   12.3358   23.4945 C.3         1 DAO      -0.0653
     15 H1         -3.2510   15.3992   18.7565 H           1 DAO       0.0430
     16 H2         -1.6859   14.9687   19.4515 H           1 DAO       0.0430
     17 H3         -1.0966   13.8364   17.2226 H           1 DAO       0.0283
     18 H4         -2.7344   14.1793   16.6816 H           1 DAO       0.0283
     19 H5         -2.7733   11.9143   17.3838 H           1 DAO       0.0266
     20 H6         -3.6130   12.8045   18.6453 H           1 DAO       0.0266
     21 H7         -1.4369   12.7494   20.0146 H           1 DAO       0.0265
     22 H8         -0.7235   11.8009   18.7169 H           1 DAO       0.0265
     23 H9         -1.3001   10.2991   20.4551 H           1 DAO       0.0265
     24 H10        -2.4082    9.9788   19.1292 H           1 DAO       0.0265
     25 H11        -4.1732   11.3243   20.3459 H           1 DAO       0.0265
     26 H12        -3.0353   11.5599   21.6733 H           1 DAO       0.0265
     27 H13        -3.0355    8.7651   21.3174 H           1 DAO       0.0265
     28 H14        -4.6981    9.1709   21.0160 H           1 DAO       0.0265
     29 H15        -3.3239   10.2234   23.5454 H           1 DAO       0.0265
     30 H16        -3.7464    8.5322   23.4331 H           1 DAO       0.0265
     31 H17        -5.4124   10.0090   24.6305 H           1 DAO       0.0265
     32 H18        -6.0292    8.8764   23.4546 H           1 DAO       0.0265
     33 H19        -7.3058   10.7003   22.9273 H           1 DAO       0.0263
     34 H20        -6.0015   10.9784   21.8127 H           1 DAO       0.0263
     35 H21        -6.6863   13.0629   23.0131 H           1 DAO       0.0230
     36 H22        -5.0085   12.6658   23.3715 H           1 DAO       0.0230
     37 H23        -6.2665   12.3164   24.5590 H           1 DAO       0.0230
@<TRIPOS>BOND
     1     1     3  ar
     2     3     2  ar
     3     3     4   1
     4     4     5   1
     5     5     6   1
     6     6     7   1
     7     7     8   1
     8     8     9   1
     9     9    10   1
    10    10    11   1
    11    11    12   1
    12    12    13   1
    13    13    14   1
    14     4    15   1
    15     4    16   1
    16     5    17   1
    17     5    18   1
    18     6    19   1
    19     6    20   1
    20     7    21   1
    21     7    22   1
    22     8    23   1
    23     8    24   1
    24     9    25   1
    25     9    26   1
    26    10    27   1
    27    10    28   1
    28    11    29   1
    29    11    30   1
    30    12    31   1
    31    12    32   1
    32    13    33   1
    33    13    34   1
    34    14    35   1
    35    14    36   1
    36    14    37   1
@<TRIPOS>SUBSTRUCTURE
     1  DAO      3

