@<TRIPOS>MOLECULE
3ueu_ligand_009
    37    36
SMALL
GAST_HUCK
****
This file was generated by PARSER (from files_GN.cpp)

@<TRIPOS>ATOM
      1 O1         -4.2873   14.6145   13.4023 O.co2       1 DAO      -0.5690
      2 O2         -4.3973   12.5362   14.4954 O.co2       1 DAO      -0.5690
      3 C1         -4.1426   13.8801   14.5437 C.2         1 DAO       0.0348
      4 C2         -3.5217   14.5210   15.7379 C.3         1 DAO       0.0002
      5 C3         -3.5553   13.6206   17.0229 C.3         1 DAO      -0.0414
      6 C4         -2.5915   14.0844   18.1691 C.3         1 DAO      -0.0516
      7 C5         -1.9726   12.9997   19.1117 C.3         1 DAO      -0.0530
      8 C6         -2.7928   11.7001   19.3358 C.3         1 DAO      -0.0531
      9 C7         -2.3767   10.8798   20.6069 C.3         1 DAO      -0.0531
     10 C8         -3.3863   11.0135   21.8045 C.3         1 DAO      -0.0531
     11 C9         -4.2355    9.7213   22.0039 C.3         1 DAO      -0.0531
     12 C10        -5.4370    9.8740   22.9967 C.3         1 DAO      -0.0533
     13 C11        -6.3939   11.0748   22.7045 C.3         1 DAO      -0.0559
     14 C12        -6.0789   12.3373   23.5613 C.3         1 DAO      -0.0653
     15 H1         -4.0788   15.4458   15.9540 H           1 DAO       0.0430
     16 H2         -2.4784   14.7722   15.5069 H           1 DAO       0.0430
     17 H3         -3.3240   12.5642   16.7517 H           1 DAO       0.0283
     18 H4         -4.5883   13.6525   17.4301 H           1 DAO       0.0283
     19 H5         -3.1543   14.7884   18.7935 H           1 DAO       0.0266
     20 H6         -1.7591   14.6496   17.7299 H           1 DAO       0.0266
     21 H7         -1.7723   13.4600   20.0843 H           1 DAO       0.0265
     22 H8         -0.9961   12.6963   18.7071 H           1 DAO       0.0265
     23 H9         -2.6505   11.0447   18.4722 H           1 DAO       0.0265
     24 H10        -3.8641   11.9392   19.4024 H           1 DAO       0.0265
     25 H11        -1.3740   11.2118   20.9438 H           1 DAO       0.0265
     26 H12        -2.2790    9.8240   20.3049 H           1 DAO       0.0265
     27 H13        -4.0941   11.8346   21.6281 H           1 DAO       0.0265
     28 H14        -2.8356   11.2108   22.7343 H           1 DAO       0.0265
     29 H15        -3.5917    8.9196   22.3890 H           1 DAO       0.0265
     30 H16        -4.6430    9.3841   21.0360 H           1 DAO       0.0265
     31 H17        -5.0438    9.9202   24.0225 H           1 DAO       0.0265
     32 H18        -6.0314    8.9462   22.9255 H           1 DAO       0.0265
     33 H19        -7.4333   10.7762   22.9364 H           1 DAO       0.0263
     34 H20        -6.3383   11.3578   21.6481 H           1 DAO       0.0263
     35 H21        -6.7103   13.1770   23.2372 H           1 DAO       0.0230
     36 H22        -5.0235   12.6283   23.4512 H           1 DAO       0.0230
     37 H23        -6.2823   12.1395   24.6295 H           1 DAO       0.0230
@<TRIPOS>BOND
     1     1     3  ar
     2     3     2  ar
     3     3     4   1
     4     4     5   1
     5     5     6   1
     6     6     7   1
     7     7     8   1
     8     8     9   1
     9     9    10   1
    10    10    11   1
    11    11    12   1
    12    12    13   1
    13    13    14   1
    14     4    15   1
    15     4    16   1
    16     5    17   1
    17     5    18   1
    18     6    19   1
    19     6    20   1
    20     7    21   1
    21     7    22   1
    22     8    23   1
    23     8    24   1
    24     9    25   1
    25     9    26   1
    26    10    27   1
    27    10    28   1
    28    11    29   1
    29    11    30   1
    30    12    31   1
    31    12    32   1
    32    13    33   1
    33    13    34   1
    34    14    35   1
    35    14    36   1
    36    14    37   1
@<TRIPOS>SUBSTRUCTURE
     1  DAO      3

