@<TRIPOS>MOLECULE
3ueu_ligand_010
    37    36
SMALL
GAST_HUCK
****
This file was generated by PARSER (from files_GN.cpp)

@<TRIPOS>ATOM
      1 O1         -3.7285    4.2054   15.8609 O.co2       1 DAO      -0.5690
      2 O2         -6.0235    4.4350   15.5592 O.co2       1 DAO      -0.5690
      3 C1         -4.9834    4.0848   16.3486 C.2         1 DAO       0.0348
      4 C2         -5.2347    3.5024   17.6846 C.3         1 DAO       0.0002
      5 C3         -5.8293    4.5125   18.7124 C.3         1 DAO      -0.0414
      6 C4         -4.8408    5.2540   19.6676 C.3         1 DAO      -0.0516
      7 C5         -3.8195    6.1914   18.9562 C.3         1 DAO      -0.0530
      8 C6         -3.2711    7.4676   19.6863 C.3         1 DAO      -0.0531
      9 C7         -3.5058    7.6594   21.2220 C.3         1 DAO      -0.0531
     10 C8         -4.5611    8.7505   21.5845 C.3         1 DAO      -0.0531
     11 C9         -4.4587    9.3402   23.0296 C.3         1 DAO      -0.0531
     12 C10        -4.5290   10.8922   23.1378 C.3         1 DAO      -0.0533
     13 C11        -5.8992   11.5112   22.7432 C.3         1 DAO      -0.0559
     14 C12        -6.1510   12.8870   23.4052 C.3         1 DAO      -0.0653
     15 H1         -4.3162    3.0658   18.0806 H           1 DAO       0.0430
     16 H2         -5.9527    2.6876   17.5427 H           1 DAO       0.0430
     17 H3         -6.5269    3.9521   19.3457 H           1 DAO       0.0283
     18 H4         -6.4211    5.2597   18.1804 H           1 DAO       0.0283
     19 H5         -4.2971    4.5073   20.2548 H           1 DAO       0.0266
     20 H6         -5.4376    5.8364   20.3748 H           1 DAO       0.0266
     21 H7         -4.2671    6.5261   18.0150 H           1 DAO       0.0265
     22 H8         -2.9643    5.5647   18.6864 H           1 DAO       0.0265
     23 H9         -3.6436    8.3519   19.1656 H           1 DAO       0.0265
     24 H10        -2.1917    7.4726   19.5125 H           1 DAO       0.0265
     25 H11        -2.5571    7.9734   21.6627 H           1 DAO       0.0265
     26 H12        -3.7808    6.7038   21.6730 H           1 DAO       0.0265
     27 H13        -5.5601    8.3205   21.4586 H           1 DAO       0.0265
     28 H14        -4.4622    9.5578   20.8567 H           1 DAO       0.0265
     29 H15        -3.5199    9.0190   23.4882 H           1 DAO       0.0265
     30 H16        -5.2623    8.9208   23.6453 H           1 DAO       0.0265
     31 H17        -3.7446   11.3314   22.5134 H           1 DAO       0.0265
     32 H18        -4.3080   11.1636   24.1739 H           1 DAO       0.0265
     33 H19        -6.7031   10.8350   23.0366 H           1 DAO       0.0263
     34 H20        -5.9432   11.6363   21.6576 H           1 DAO       0.0263
     35 H21        -7.0664   13.3326   23.0137 H           1 DAO       0.0230
     36 H22        -5.3238   13.5670   23.2049 H           1 DAO       0.0230
     37 H23        -6.2558   12.7701   24.4861 H           1 DAO       0.0230
@<TRIPOS>BOND
     1     1     3  ar
     2     3     2  ar
     3     3     4   1
     4     4     5   1
     5     5     6   1
     6     6     7   1
     7     7     8   1
     8     8     9   1
     9     9    10   1
    10    10    11   1
    11    11    12   1
    12    12    13   1
    13    13    14   1
    14     4    15   1
    15     4    16   1
    16     5    17   1
    17     5    18   1
    18     6    19   1
    19     6    20   1
    20     7    21   1
    21     7    22   1
    22     8    23   1
    23     8    24   1
    24     9    25   1
    25     9    26   1
    26    10    27   1
    27    10    28   1
    28    11    29   1
    29    11    30   1
    30    12    31   1
    31    12    32   1
    32    13    33   1
    33    13    34   1
    34    14    35   1
    35    14    36   1
    36    14    37   1
@<TRIPOS>SUBSTRUCTURE
     1  DAO      3

