@<TRIPOS>MOLECULE
3ueu_ligand_015
    37    36
SMALL
GAST_HUCK
****
This file was generated by PARSER (from files_GN.cpp)

@<TRIPOS>ATOM
      1 O1          1.5864   12.3855   19.5531 O.co2       1 DAO      -0.5690
      2 O2          0.3406   10.8371   20.7678 O.co2       1 DAO      -0.5690
      3 C1          0.3905   11.8262   19.8343 C.2         1 DAO       0.0348
      4 C2         -0.8596   12.3887   19.3065 C.3         1 DAO       0.0002
      5 C3         -1.5829   11.4076   18.3352 C.3         1 DAO      -0.0414
      6 C4         -3.1360   11.5287   18.3543 C.3         1 DAO      -0.0516
      7 C5         -3.8506   10.4910   19.2626 C.3         1 DAO      -0.0530
      8 C6         -3.3470   10.4596   20.7401 C.3         1 DAO      -0.0531
      9 C7         -3.7576    9.1317   21.4451 C.3         1 DAO      -0.0531
     10 C8         -4.0924    9.2776   22.9600 C.3         1 DAO      -0.0531
     11 C9         -5.5908    9.5199   23.2888 C.3         1 DAO      -0.0531
     12 C10        -6.1686   10.9177   22.9099 C.3         1 DAO      -0.0533
     13 C11        -5.7201   12.1375   23.7685 C.3         1 DAO      -0.0559
     14 C12        -5.3818   11.8455   25.2598 C.3         1 DAO      -0.0653
     15 H1         -0.6384   13.3174   18.7642 H           1 DAO       0.0430
     16 H2         -1.5059   12.6478   20.1517 H           1 DAO       0.0430
     17 H3         -1.2943   10.3706   18.5574 H           1 DAO       0.0283
     18 H4         -1.2276   11.6166   17.3220 H           1 DAO       0.0283
     19 H5         -3.5116   11.3684   17.3383 H           1 DAO       0.0266
     20 H6         -3.4478   12.5400   18.6522 H           1 DAO       0.0266
     21 H7         -3.7256    9.4896   18.8178 H           1 DAO       0.0265
     22 H8         -4.9229   10.7144   19.2680 H           1 DAO       0.0265
     23 H9         -3.7548   11.3266   21.2744 H           1 DAO       0.0265
     24 H10        -2.2519   10.5170   20.7409 H           1 DAO       0.0265
     25 H11        -2.9144    8.4442   21.3337 H           1 DAO       0.0265
     26 H12        -4.6065    8.6751   20.9258 H           1 DAO       0.0265
     27 H13        -3.4635   10.0425   23.4192 H           1 DAO       0.0265
     28 H14        -3.8219    8.3321   23.4356 H           1 DAO       0.0265
     29 H15        -5.7330    9.3615   24.3719 H           1 DAO       0.0265
     30 H16        -6.1784    8.7605   22.7492 H           1 DAO       0.0265
     31 H17        -7.2594   10.8380   22.9852 H           1 DAO       0.0265
     32 H18        -5.9458   11.1290   21.8596 H           1 DAO       0.0265
     33 H19        -6.5295   12.8724   23.7382 H           1 DAO       0.0263
     34 H20        -4.8420   12.5968   23.2976 H           1 DAO       0.0263
     35 H21        -5.2907   12.7940   25.8017 H           1 DAO       0.0230
     36 H22        -4.4206   11.3042   25.3190 H           1 DAO       0.0230
     37 H23        -6.1790   11.2491   25.7271 H           1 DAO       0.0230
@<TRIPOS>BOND
     1     1     3  ar
     2     3     2  ar
     3     3     4   1
     4     4     5   1
     5     5     6   1
     6     6     7   1
     7     7     8   1
     8     8     9   1
     9     9    10   1
    10    10    11   1
    11    11    12   1
    12    12    13   1
    13    13    14   1
    14     4    15   1
    15     4    16   1
    16     5    17   1
    17     5    18   1
    18     6    19   1
    19     6    20   1
    20     7    21   1
    21     7    22   1
    22     8    23   1
    23     8    24   1
    24     9    25   1
    25     9    26   1
    26    10    27   1
    27    10    28   1
    28    11    29   1
    29    11    30   1
    30    12    31   1
    31    12    32   1
    32    13    33   1
    33    13    34   1
    34    14    35   1
    35    14    36   1
    36    14    37   1
@<TRIPOS>SUBSTRUCTURE
     1  DAO      3

