@<TRIPOS>MOLECULE
3ueu_ligand_014
    37    36
SMALL
GAST_HUCK
****
This file was generated by PARSER (from files_GN.cpp)

@<TRIPOS>ATOM
      1 O1         -1.0389    7.8643   19.3651 O.co2       1 DAO      -0.5690
      2 O2         -1.0284    6.3596   17.5919 O.co2       1 DAO      -0.5690
      3 C1         -1.4197    7.5461   18.0957 C.2         1 DAO       0.0348
      4 C2         -2.4085    8.3585   17.3522 C.3         1 DAO       0.0002
      5 C3         -2.4153    9.8911   17.6425 C.3         1 DAO      -0.0414
      6 C4         -3.3989   10.4018   18.7437 C.3         1 DAO      -0.0516
      7 C5         -3.1088    9.8962   20.1876 C.3         1 DAO      -0.0530
      8 C6         -3.8798   10.6525   21.3230 C.3         1 DAO      -0.0531
      9 C7         -5.4256   10.4716   21.2837 C.3         1 DAO      -0.0531
     10 C8         -6.2679   11.3044   22.3041 C.3         1 DAO      -0.0531
     11 C9         -5.5733   11.8526   23.5916 C.3         1 DAO      -0.0531
     12 C10        -4.9084   10.7822   24.5210 C.3         1 DAO      -0.0533
     13 C11        -5.3224   10.8255   26.0348 C.3         1 DAO      -0.0559
     14 C12        -4.2070   11.2880   27.0003 C.3         1 DAO      -0.0653
     15 H1         -3.4102    7.9394   17.5143 H           1 DAO       0.0430
     16 H2         -2.1712    8.2260   16.2871 H           1 DAO       0.0430
     17 H3         -2.7041   10.3997   16.7148 H           1 DAO       0.0283
     18 H4         -1.4000   10.2321   17.8796 H           1 DAO       0.0283
     19 H5         -4.4241   10.1381   18.4591 H           1 DAO       0.0266
     20 H6         -3.3296   11.4970   18.7453 H           1 DAO       0.0266
     21 H7         -2.0403   10.0354   20.3818 H           1 DAO       0.0265
     22 H8         -3.3178    8.8180   20.2427 H           1 DAO       0.0265
     23 H9         -3.6280   11.7189   21.2790 H           1 DAO       0.0265
     24 H10        -3.5202   10.2671   22.2827 H           1 DAO       0.0265
     25 H11        -5.6494    9.4098   21.4432 H           1 DAO       0.0265
     26 H12        -5.7799   10.7402   20.2807 H           1 DAO       0.0265
     27 H13        -7.1087   10.6800   22.6239 H           1 DAO       0.0265
     28 H14        -6.7039   12.1610   21.7752 H           1 DAO       0.0265
     29 H15        -6.3435   12.4003   24.1505 H           1 DAO       0.0265
     30 H16        -4.8145   12.5869   23.2970 H           1 DAO       0.0265
     31 H17        -3.8199   10.8863   24.4322 H           1 DAO       0.0265
     32 H18        -5.1511    9.7835   24.1369 H           1 DAO       0.0265
     33 H19        -5.6167    9.8154   26.3457 H           1 DAO       0.0263
     34 H20        -6.1953   11.4755   26.1848 H           1 DAO       0.0263
     35 H21        -4.5829   11.2417   28.0268 H           1 DAO       0.0230
     36 H22        -3.9121   12.3159   26.7753 H           1 DAO       0.0230
     37 H23        -3.3348   10.6356   26.9215 H           1 DAO       0.0230
@<TRIPOS>BOND
     1     1     3  ar
     2     3     2  ar
     3     3     4   1
     4     4     5   1
     5     5     6   1
     6     6     7   1
     7     7     8   1
     8     8     9   1
     9     9    10   1
    10    10    11   1
    11    11    12   1
    12    12    13   1
    13    13    14   1
    14     4    15   1
    15     4    16   1
    16     5    17   1
    17     5    18   1
    18     6    19   1
    19     6    20   1
    20     7    21   1
    21     7    22   1
    22     8    23   1
    23     8    24   1
    24     9    25   1
    25     9    26   1
    26    10    27   1
    27    10    28   1
    28    11    29   1
    29    11    30   1
    30    12    31   1
    31    12    32   1
    32    13    33   1
    33    13    34   1
    34    14    35   1
    35    14    36   1
    36    14    37   1
@<TRIPOS>SUBSTRUCTURE
     1  DAO      3

