@<TRIPOS>MOLECULE
3ueu_ligand_021
    37    36
SMALL
GAST_HUCK
****
This file was generated by PARSER (from files_GN.cpp)

@<TRIPOS>ATOM
      1 O1         -9.3979   -1.0652   17.3529 O.co2       1 DAO      -0.5690
      2 O2         -8.4281    1.0015   16.9913 O.co2       1 DAO      -0.5690
      3 C1         -9.1920    0.2075   17.7726 C.2         1 DAO       0.0348
      4 C2        -10.1545    0.8310   18.6984 C.3         1 DAO       0.0002
      5 C3         -9.6119    0.9803   20.1479 C.3         1 DAO      -0.0414
      6 C4         -8.5940    2.1391   20.3895 C.3         1 DAO      -0.0516
      7 C5         -7.1104    1.8019   20.0558 C.3         1 DAO      -0.0530
      8 C6         -6.0679    2.8425   20.5633 C.3         1 DAO      -0.0531
      9 C7         -6.1766    4.2791   19.9506 C.3         1 DAO      -0.0531
     10 C8         -4.9022    4.8364   19.2447 C.3         1 DAO      -0.0531
     11 C9         -3.9510    5.7115   20.1166 C.3         1 DAO      -0.0531
     12 C10        -3.1201    4.9794   21.2063 C.3         1 DAO      -0.0533
     13 C11        -1.8213    4.3207   20.6645 C.3         1 DAO      -0.0559
     14 C12        -0.9633    3.6591   21.7654 C.3         1 DAO      -0.0653
     15 H1        -11.0563    0.2099   18.7322 H           1 DAO       0.0430
     16 H2        -10.4581    1.8125   18.3174 H           1 DAO       0.0430
     17 H3         -9.1819    0.0292   20.4803 H           1 DAO       0.0283
     18 H4        -10.4800    1.1686   20.7878 H           1 DAO       0.0283
     19 H5         -8.6460    2.4028   21.4518 H           1 DAO       0.0266
     20 H6         -8.9098    3.0208   19.8237 H           1 DAO       0.0266
     21 H7         -6.9886    1.6768   18.9764 H           1 DAO       0.0265
     22 H8         -6.8664    0.8465   20.5290 H           1 DAO       0.0265
     23 H9         -5.0743    2.4309   20.3629 H           1 DAO       0.0265
     24 H10        -6.1605    2.9136   21.6524 H           1 DAO       0.0265
     25 H11        -6.4698    4.9727   20.7411 H           1 DAO       0.0265
     26 H12        -6.9880    4.2890   19.2167 H           1 DAO       0.0265
     27 H13        -5.2390    5.4801   18.4238 H           1 DAO       0.0265
     28 H14        -4.3372    4.0227   18.7876 H           1 DAO       0.0265
     29 H15        -4.5498    6.4900   20.6008 H           1 DAO       0.0265
     30 H16        -3.2622    6.2328   19.4448 H           1 DAO       0.0265
     31 H17        -3.7363    4.2347   21.7151 H           1 DAO       0.0265
     32 H18        -2.8310    5.7228   21.9558 H           1 DAO       0.0265
     33 H19        -1.2069    5.0904   20.1900 H           1 DAO       0.0263
     34 H20        -2.0710    3.5730   19.9064 H           1 DAO       0.0263
     35 H21        -0.0680    3.2153   21.3188 H           1 DAO       0.0230
     36 H22        -1.5231    2.8712   22.2743 H           1 DAO       0.0230
     37 H23        -0.6525    4.4091   22.4992 H           1 DAO       0.0230
@<TRIPOS>BOND
     1     1     3  ar
     2     3     2  ar
     3     3     4   1
     4     4     5   1
     5     5     6   1
     6     6     7   1
     7     7     8   1
     8     8     9   1
     9     9    10   1
    10    10    11   1
    11    11    12   1
    12    12    13   1
    13    13    14   1
    14     4    15   1
    15     4    16   1
    16     5    17   1
    17     5    18   1
    18     6    19   1
    19     6    20   1
    20     7    21   1
    21     7    22   1
    22     8    23   1
    23     8    24   1
    24     9    25   1
    25     9    26   1
    26    10    27   1
    27    10    28   1
    28    11    29   1
    29    11    30   1
    30    12    31   1
    31    12    32   1
    32    13    33   1
    33    13    34   1
    34    14    35   1
    35    14    36   1
    36    14    37   1
@<TRIPOS>SUBSTRUCTURE
     1  DAO      3

