@<TRIPOS>MOLECULE
3ueu_ligand_004
    37    36
SMALL
GAST_HUCK
****
This file was generated by PARSER (from files_GN.cpp)

@<TRIPOS>ATOM
      1 O1         -4.2257   15.4384   15.6417 O.co2       1 DAO      -0.5690
      2 O2         -5.1769   16.3432   17.5630 O.co2       1 DAO      -0.5690
      3 C1         -4.3265   15.4702   16.9926 C.2         1 DAO       0.0348
      4 C2         -3.5406   14.5329   17.8136 C.3         1 DAO       0.0002
      5 C3         -4.1854   13.1248   17.8877 C.3         1 DAO      -0.0414
      6 C4         -3.3975   12.1489   18.8229 C.3         1 DAO      -0.0516
      7 C5         -4.2524   11.0711   19.5639 C.3         1 DAO      -0.0530
      8 C6         -3.7321   10.7733   21.0036 C.3         1 DAO      -0.0531
      9 C7         -4.4258    9.5653   21.6818 C.3         1 DAO      -0.0531
     10 C8         -4.1468    9.4308   23.2142 C.3         1 DAO      -0.0531
     11 C9         -5.2476   10.0089   24.1662 C.3         1 DAO      -0.0531
     12 C10        -4.9615   11.4139   24.7870 C.3         1 DAO      -0.0533
     13 C11        -4.5541   11.4025   26.2877 C.3         1 DAO      -0.0559
     14 C12        -5.7140   11.0796   27.2580 C.3         1 DAO      -0.0653
     15 H1         -3.4837   14.9489   18.8221 H           1 DAO       0.0430
     16 H2         -2.5248   14.4620   17.4206 H           1 DAO       0.0430
     17 H3         -4.2383   12.6888   16.8865 H           1 DAO       0.0283
     18 H4         -5.2114   13.2521   18.2358 H           1 DAO       0.0283
     19 H5         -2.8551   12.7236   19.5736 H           1 DAO       0.0266
     20 H6         -2.6291   11.6430   18.2276 H           1 DAO       0.0266
     21 H7         -4.2558   10.1587   18.9626 H           1 DAO       0.0265
     22 H8         -5.2923   11.3939   19.6595 H           1 DAO       0.0265
     23 H9         -3.8964   11.6654   21.6116 H           1 DAO       0.0265
     24 H10        -2.6554   10.5831   20.9718 H           1 DAO       0.0265
     25 H11        -4.0596    8.6658   21.1789 H           1 DAO       0.0265
     26 H12        -5.5003    9.6150   21.4967 H           1 DAO       0.0265
     27 H13        -3.1733    9.8600   23.4610 H           1 DAO       0.0265
     28 H14        -4.0518    8.3638   23.4283 H           1 DAO       0.0265
     29 H15        -5.3937    9.2885   24.9764 H           1 DAO       0.0265
     30 H16        -6.2040   10.0633   23.6379 H           1 DAO       0.0265
     31 H17        -5.8454   12.0490   24.6881 H           1 DAO       0.0265
     32 H18        -4.1676   11.9140   24.2323 H           1 DAO       0.0265
     33 H19        -4.1718   12.3890   26.5569 H           1 DAO       0.0263
     34 H20        -3.7435   10.6943   26.4524 H           1 DAO       0.0263
     35 H21        -5.3971   11.2528   28.2863 H           1 DAO       0.0230
     36 H22        -6.0464   10.0438   27.1681 H           1 DAO       0.0230
     37 H23        -6.5558   11.7394   27.0593 H           1 DAO       0.0230
@<TRIPOS>BOND
     1     1     3  ar
     2     3     2  ar
     3     3     4   1
     4     4     5   1
     5     5     6   1
     6     6     7   1
     7     7     8   1
     8     8     9   1
     9     9    10   1
    10    10    11   1
    11    11    12   1
    12    12    13   1
    13    13    14   1
    14     4    15   1
    15     4    16   1
    16     5    17   1
    17     5    18   1
    18     6    19   1
    19     6    20   1
    20     7    21   1
    21     7    22   1
    22     8    23   1
    23     8    24   1
    24     9    25   1
    25     9    26   1
    26    10    27   1
    27    10    28   1
    28    11    29   1
    29    11    30   1
    30    12    31   1
    31    12    32   1
    32    13    33   1
    33    13    34   1
    34    14    35   1
    35    14    36   1
    36    14    37   1
@<TRIPOS>SUBSTRUCTURE
     1  DAO      3

