@<TRIPOS>MOLECULE
3ueu_ligand_020
    37    36
SMALL
GAST_HUCK
****
This file was generated by PARSER (from files_GN.cpp)

@<TRIPOS>ATOM
      1 O1          0.2617    2.8894   15.8046 O.co2       1 DAO      -0.5690
      2 O2          2.2650    2.2806   16.8209 O.co2       1 DAO      -0.5690
      3 C1          1.0721    2.9345   16.8846 C.2         1 DAO       0.0348
      4 C2          0.5876    3.5065   18.1529 C.3         1 DAO       0.0002
      5 C3          0.3883    5.0513   18.1019 C.3         1 DAO      -0.0414
      6 C4         -0.2706    5.6358   19.3868 C.3         1 DAO      -0.0516
      7 C5         -1.8316    5.6463   19.3666 C.3         1 DAO      -0.0530
      8 C6         -2.4979    5.9108   20.7464 C.3         1 DAO      -0.0531
      9 C7         -2.4608    7.3769   21.2776 C.3         1 DAO      -0.0531
     10 C8         -3.5444    8.3602   20.7192 C.3         1 DAO      -0.0531
     11 C9         -4.3609    9.0960   21.8271 C.3         1 DAO      -0.0531
     12 C10        -4.8944   10.5005   21.3991 C.3         1 DAO      -0.0533
     13 C11        -6.0017   11.1268   22.2931 C.3         1 DAO      -0.0559
     14 C12        -5.5075   11.8092   23.5865 C.3         1 DAO      -0.0653
     15 H1          1.3005    3.2705   18.9539 H           1 DAO       0.0430
     16 H2         -0.3609    3.0174   18.3993 H           1 DAO       0.0430
     17 H3         -0.2169    5.3218   17.2331 H           1 DAO       0.0283
     18 H4          1.3723    5.5178   17.9724 H           1 DAO       0.0283
     19 H5          0.0730    6.6681   19.5074 H           1 DAO       0.0266
     20 H6          0.0954    5.0735   20.2539 H           1 DAO       0.0266
     21 H7         -2.1814    4.6670   19.0227 H           1 DAO       0.0265
     22 H8         -2.1724    6.3903   18.6416 H           1 DAO       0.0265
     23 H9         -1.9966    5.2735   21.4841 H           1 DAO       0.0265
     24 H10        -3.5384    5.5744   20.7001 H           1 DAO       0.0265
     25 H11        -1.4704    7.7972   21.0830 H           1 DAO       0.0265
     26 H12        -2.5597    7.3056   22.3658 H           1 DAO       0.0265
     27 H13        -4.2433    7.8312   20.0685 H           1 DAO       0.0265
     28 H14        -3.0381    9.1127   20.1069 H           1 DAO       0.0265
     29 H15        -3.7276    9.2318   22.7105 H           1 DAO       0.0265
     30 H16        -5.2035    8.4622   22.1145 H           1 DAO       0.0265
     31 H17        -5.3134   10.4118   20.3971 H           1 DAO       0.0265
     32 H18        -4.0506   11.1983   21.3349 H           1 DAO       0.0265
     33 H19        -6.7348   10.3578   22.5560 H           1 DAO       0.0263
     34 H20        -6.5302   11.8820   21.7015 H           1 DAO       0.0263
     35 H21        -6.3668   12.1613   24.1662 H           1 DAO       0.0230
     36 H22        -4.8744   12.6703   23.3519 H           1 DAO       0.0230
     37 H23        -4.9389   11.1058   24.2005 H           1 DAO       0.0230
@<TRIPOS>BOND
     1     1     3  ar
     2     3     2  ar
     3     3     4   1
     4     4     5   1
     5     5     6   1
     6     6     7   1
     7     7     8   1
     8     8     9   1
     9     9    10   1
    10    10    11   1
    11    11    12   1
    12    12    13   1
    13    13    14   1
    14     4    15   1
    15     4    16   1
    16     5    17   1
    17     5    18   1
    18     6    19   1
    19     6    20   1
    20     7    21   1
    21     7    22   1
    22     8    23   1
    23     8    24   1
    24     9    25   1
    25     9    26   1
    26    10    27   1
    27    10    28   1
    28    11    29   1
    29    11    30   1
    30    12    31   1
    31    12    32   1
    32    13    33   1
    33    13    34   1
    34    14    35   1
    35    14    36   1
    36    14    37   1
@<TRIPOS>SUBSTRUCTURE
     1  DAO      3

