@<TRIPOS>MOLECULE
3ueu_ligand_026
    37    36
SMALL
GAST_HUCK
****
This file was generated by PARSER (from files_GN.cpp)

@<TRIPOS>ATOM
      1 O1         -0.8690    6.1143    9.7941 O.co2       1 DAO      -0.5690
      2 O2         -3.1042    5.4666    9.8295 O.co2       1 DAO      -0.5690
      3 C1         -1.9743    5.7980   10.5028 C.2         1 DAO       0.0348
      4 C2         -1.9350    5.7572   11.9742 C.3         1 DAO       0.0002
      5 C3         -2.4413    4.4197   12.5784 C.3         1 DAO      -0.0414
      6 C4         -1.6147    3.1669   12.1631 C.3         1 DAO      -0.0516
      7 C5         -2.0646    1.8313   12.8374 C.3         1 DAO      -0.0530
      8 C6         -1.0982    1.2753   13.9196 C.3         1 DAO      -0.0531
      9 C7         -1.0579    2.1167   15.2278 C.3         1 DAO      -0.0531
     10 C8          0.1932    1.8482   16.1110 C.3         1 DAO      -0.0531
     11 C9          1.5373    2.2933   15.4475 C.3         1 DAO      -0.0531
     12 C10         2.3711    3.2959   16.2911 C.3         1 DAO      -0.0533
     13 C11         3.6902    3.8294   15.6445 C.3         1 DAO      -0.0559
     14 C12         3.9047    3.6086   14.1255 C.3         1 DAO      -0.0653
     15 H1         -2.5627    6.5691   12.3406 H           1 DAO       0.0430
     16 H2         -0.9123    5.9464   12.3158 H           1 DAO       0.0430
     17 H3         -3.4847    4.2743   12.2906 H           1 DAO       0.0283
     18 H4         -2.4210    4.5148   13.6685 H           1 DAO       0.0283
     19 H5         -0.5605    3.3609   12.3809 H           1 DAO       0.0266
     20 H6         -1.6975    3.0549   11.0807 H           1 DAO       0.0266
     21 H7         -2.1456    1.0671   12.0606 H           1 DAO       0.0265
     22 H8         -3.0578    1.9366   13.2792 H           1 DAO       0.0265
     23 H9         -0.1033    1.1993   13.4790 H           1 DAO       0.0265
     24 H10        -1.4111    0.2582   14.1744 H           1 DAO       0.0265
     25 H11        -1.9603    1.9009   15.8084 H           1 DAO       0.0265
     26 H12        -1.0683    3.1820   14.9941 H           1 DAO       0.0265
     27 H13         0.2337    0.7797   16.3416 H           1 DAO       0.0265
     28 H14         0.0477    2.3767   17.0592 H           1 DAO       0.0265
     29 H15         1.3281    2.7750   14.4897 H           1 DAO       0.0265
     30 H16         2.1484    1.4083   15.2505 H           1 DAO       0.0265
     31 H17         2.6228    2.8115   17.2360 H           1 DAO       0.0265
     32 H18         1.7351    4.1490   16.5366 H           1 DAO       0.0265
     33 H19         4.5437    3.3831   16.1584 H           1 DAO       0.0263
     34 H20         3.7431    4.9080   15.8167 H           1 DAO       0.0263
     35 H21         4.8290    4.1045   13.8149 H           1 DAO       0.0230
     36 H22         3.0782    4.0298   13.5513 H           1 DAO       0.0230
     37 H23         3.9951    2.5451   13.8959 H           1 DAO       0.0230
@<TRIPOS>BOND
     1     1     3  ar
     2     3     2  ar
     3     3     4   1
     4     4     5   1
     5     5     6   1
     6     6     7   1
     7     7     8   1
     8     8     9   1
     9     9    10   1
    10    10    11   1
    11    11    12   1
    12    12    13   1
    13    13    14   1
    14     4    15   1
    15     4    16   1
    16     5    17   1
    17     5    18   1
    18     6    19   1
    19     6    20   1
    20     7    21   1
    21     7    22   1
    22     8    23   1
    23     8    24   1
    24     9    25   1
    25     9    26   1
    26    10    27   1
    27    10    28   1
    28    11    29   1
    29    11    30   1
    30    12    31   1
    31    12    32   1
    32    13    33   1
    33    13    34   1
    34    14    35   1
    35    14    36   1
    36    14    37   1
@<TRIPOS>SUBSTRUCTURE
     1  DAO      3

