@<TRIPOS>MOLECULE
3uex_ligand_025
    55    54
SMALL
GAST_HUCK
****
This file was generated by PARSER (from files_GN.cpp)

@<TRIPOS>ATOM
      1 C1         -4.1434    0.1217   14.8889 C.2         1 STE       0.0348
      2 O1         -5.1724    0.0704   14.0161 O.co2       1 STE      -0.5690
      3 O2         -3.5115   -1.0260   15.2179 O.co2       1 STE      -0.5690
      4 C2         -3.6667    1.4176   15.3984 C.3         1 STE       0.0002
      5 C3         -4.5951    2.0492   16.4682 C.3         1 STE      -0.0414
      6 C4         -6.0999    2.1554   16.0702 C.3         1 STE      -0.0516
      7 C5         -7.0335    2.4932   17.2693 C.3         1 STE      -0.0530
      8 C6         -7.1023    4.0107   17.6278 C.3         1 STE      -0.0531
      9 C7         -7.4345    4.2655   19.1213 C.3         1 STE      -0.0531
     10 C8         -7.1364    5.7023   19.6245 C.3         1 STE      -0.0531
     11 C9         -5.6442    6.1490   19.5254 C.3         1 STE      -0.0531
     12 C10        -5.2500    7.2223   20.5809 C.3         1 STE      -0.0531
     13 C11        -4.2101    8.2750   20.0855 C.3         1 STE      -0.0531
     14 C12        -4.7623    9.2503   18.9995 C.3         1 STE      -0.0531
     15 C13        -4.1075   10.6739   18.9863 C.3         1 STE      -0.0531
     16 C14        -3.0378   10.9242   17.8854 C.3         1 STE      -0.0531
     17 C15        -2.0456    9.7676   17.5603 C.3         1 STE      -0.0531
     18 C16        -0.7516    9.7133   18.4312 C.3         1 STE      -0.0533
     19 C17        -0.9407    9.2130   19.8935 C.3         1 STE      -0.0559
     20 C18        -0.7231    7.6856   20.0399 C.3         1 STE      -0.0653
     21 H1         -3.5406    2.1088   14.5632 H           1 STE       0.0430
     22 H2         -2.6843    1.2772   15.8585 H           1 STE       0.0430
     23 H3         -4.2162    3.0534   16.6768 H           1 STE       0.0283
     24 H4         -4.5200    1.4742   17.3987 H           1 STE       0.0283
     25 H5         -6.4179    1.1920   15.6629 H           1 STE       0.0266
     26 H6         -6.2237    2.9054   15.2839 H           1 STE       0.0266
     27 H7         -6.7071    1.9130   18.1388 H           1 STE       0.0265
     28 H8         -8.0497    2.1591   17.0297 H           1 STE       0.0265
     29 H9         -7.8588    4.4859   16.9934 H           1 STE       0.0265
     30 H10        -6.1442    4.4815   17.4035 H           1 STE       0.0265
     31 H11        -6.8638    3.5565   19.7305 H           1 STE       0.0265
     32 H12        -8.4989    4.0598   19.2869 H           1 STE       0.0265
     33 H13        -7.4609    5.7462   20.6660 H           1 STE       0.0265
     34 H14        -7.7483    6.4093   19.0571 H           1 STE       0.0265
     35 H15        -5.4780    6.5373   18.5157 H           1 STE       0.0265
     36 H16        -4.9945    5.2751   19.6582 H           1 STE       0.0265
     37 H17        -4.8167    6.6927   21.4382 H           1 STE       0.0265
     38 H18        -6.1454    7.7397   20.9444 H           1 STE       0.0265
     39 H19        -3.3356    7.7468   19.7018 H           1 STE       0.0265
     40 H20        -3.8901    8.8479   20.9609 H           1 STE       0.0265
     41 H21        -5.8362    9.3819   19.1726 H           1 STE       0.0265
     42 H22        -4.6514    8.7764   18.0225 H           1 STE       0.0265
     43 H23        -3.6898   10.9306   19.9648 H           1 STE       0.0265
     44 H24        -4.9081   11.3966   18.8027 H           1 STE       0.0265
     45 H25        -2.4656   11.8214   18.1609 H           1 STE       0.0265
     46 H26        -3.5782   11.1758   16.9648 H           1 STE       0.0265
     47 H27        -1.7239    9.9258   16.5209 H           1 STE       0.0265
     48 H28        -2.5810    8.8111   17.5819 H           1 STE       0.0265
     49 H29        -0.2940   10.7115   18.4614 H           1 STE       0.0265
     50 H30        -0.0367    9.0532   17.9230 H           1 STE       0.0265
     51 H31        -1.9390    9.4722   20.2563 H           1 STE       0.0263
     52 H32        -0.2115    9.7231   20.5314 H           1 STE       0.0263
     53 H33        -0.9788    7.3894   21.0621 H           1 STE       0.0230
     54 H34         0.3243    7.4246   19.8427 H           1 STE       0.0230
     55 H35        -1.3621    7.1304   19.3447 H           1 STE       0.0230
@<TRIPOS>BOND
     1     1     2  ar
     2     1     3  ar
     3     1     4   1
     4     4     5   1
     5     5     6   1
     6     6     7   1
     7     7     8   1
     8     8     9   1
     9     9    10   1
    10    10    11   1
    11    11    12   1
    12    12    13   1
    13    13    14   1
    14    14    15   1
    15    15    16   1
    16    16    17   1
    17    17    18   1
    18    18    19   1
    19    19    20   1
    20     4    21   1
    21     4    22   1
    22     5    23   1
    23     5    24   1
    24     6    25   1
    25     6    26   1
    26     7    27   1
    27     7    28   1
    28     8    29   1
    29     8    30   1
    30     9    31   1
    31     9    32   1
    32    10    33   1
    33    10    34   1
    34    11    35   1
    35    11    36   1
    36    12    37   1
    37    12    38   1
    38    13    39   1
    39    13    40   1
    40    14    41   1
    41    14    42   1
    42    15    43   1
    43    15    44   1
    44    16    45   1
    45    16    46   1
    46    17    47   1
    47    17    48   1
    48    18    49   1
    49    18    50   1
    50    19    51   1
    51    19    52   1
    52    20    53   1
    53    20    54   1
    54    20    55   1
@<TRIPOS>SUBSTRUCTURE
     1  STE      1

