@<TRIPOS>MOLECULE
3uex_ligand_072
    55    54
SMALL
GAST_HUCK
****
This file was generated by PARSER (from files_GN.cpp)

@<TRIPOS>ATOM
      1 C1         -0.5177    1.9611   21.6560 C.2         1 STE       0.0348
      2 O1         -0.4326    0.9981   20.7071 O.co2       1 STE      -0.5690
      3 O2         -0.5282    1.5854   22.9560 O.co2       1 STE      -0.5690
      4 C2         -0.7331    3.3659   21.2674 C.3         1 STE       0.0002
      5 C3          0.5352    4.0201   20.6451 C.3         1 STE      -0.0414
      6 C4          0.2762    5.3907   19.9601 C.3         1 STE      -0.0516
      7 C5         -0.4393    6.4680   20.8318 C.3         1 STE      -0.0530
      8 C6         -1.3143    7.4741   20.0307 C.3         1 STE      -0.0531
      9 C7         -2.6076    6.8365   19.4371 C.3         1 STE      -0.0531
     10 C8         -3.4466    7.7817   18.5219 C.3         1 STE      -0.0531
     11 C9         -4.8512    8.1527   19.0785 C.3         1 STE      -0.0531
     12 C10        -5.7416    6.9212   19.4565 C.3         1 STE      -0.0531
     13 C11        -7.2530    7.0535   19.0979 C.3         1 STE      -0.0531
     14 C12        -8.0980    7.9489   20.0487 C.3         1 STE      -0.0531
     15 C13        -8.7413    7.2060   21.2726 C.3         1 STE      -0.0531
     16 C14       -10.0362    7.8829   21.7972 C.3         1 STE      -0.0531
     17 C15       -10.9001    7.0653   22.8020 C.3         1 STE      -0.0531
     18 C16       -10.4372    5.6328   23.1737 C.3         1 STE      -0.0533
     19 C17       -11.2212    4.4409   22.5421 C.3         1 STE      -0.0559
     20 C18       -10.9881    4.1953   21.0334 C.3         1 STE      -0.0653
     21 H1         -1.0274    3.9317   22.1503 H           1 STE       0.0430
     22 H2         -1.5609    3.3965   20.5563 H           1 STE       0.0430
     23 H3          0.9430    3.3555   19.8771 H           1 STE       0.0283
     24 H4          1.2995    4.1426   21.4158 H           1 STE       0.0283
     25 H5         -0.2954    5.1862   19.0535 H           1 STE       0.0266
     26 H6          1.2366    5.8017   19.6357 H           1 STE       0.0266
     27 H7          0.3272    7.0308   21.3730 H           1 STE       0.0265
     28 H8         -1.0724    5.9989   21.5874 H           1 STE       0.0265
     29 H9         -0.7141    7.9134   19.2312 H           1 STE       0.0265
     30 H10        -1.6142    8.2846   20.7041 H           1 STE       0.0265
     31 H11        -3.2237    6.4828   20.2679 H           1 STE       0.0265
     32 H12        -2.3366    5.9567   18.8513 H           1 STE       0.0265
     33 H13        -3.5899    7.2997   17.5488 H           1 STE       0.0265
     34 H14        -2.8922    8.7036   18.3279 H           1 STE       0.0265
     35 H15        -5.3503    8.7571   18.3128 H           1 STE       0.0265
     36 H16        -4.7317    8.7943   19.9570 H           1 STE       0.0265
     37 H17        -5.6395    6.7063   20.5232 H           1 STE       0.0265
     38 H18        -5.3772    6.0321   18.9255 H           1 STE       0.0265
     39 H19        -7.6994    6.0534   19.0885 H           1 STE       0.0265
     40 H20        -7.3313    7.4473   18.0826 H           1 STE       0.0265
     41 H21        -8.8893    8.4038   19.4308 H           1 STE       0.0265
     42 H22        -7.4675    8.7677   20.4059 H           1 STE       0.0265
     43 H23        -8.0064    7.1624   22.0839 H           1 STE       0.0265
     44 H24        -8.9885    6.1737   20.9943 H           1 STE       0.0265
     45 H25       -10.6583    8.1794   20.9536 H           1 STE       0.0265
     46 H26        -9.7427    8.8144   22.3030 H           1 STE       0.0265
     47 H27       -11.9235    7.0041   22.3974 H           1 STE       0.0265
     48 H28       -10.9699    7.6539   23.7245 H           1 STE       0.0265
     49 H29       -10.5614    5.5355   24.2650 H           1 STE       0.0265
     50 H30        -9.3626    5.5253   22.9598 H           1 STE       0.0265
     51 H31       -12.3012    4.5747   22.7097 H           1 STE       0.0263
     52 H32       -10.9137    3.5281   23.0692 H           1 STE       0.0263
     53 H33       -11.4434    3.2380   20.7446 H           1 STE       0.0230
     54 H34        -9.9073    4.1678   20.8159 H           1 STE       0.0230
     55 H35       -11.4710    4.9858   20.4429 H           1 STE       0.0230
@<TRIPOS>BOND
     1     1     2  ar
     2     1     3  ar
     3     1     4   1
     4     4     5   1
     5     5     6   1
     6     6     7   1
     7     7     8   1
     8     8     9   1
     9     9    10   1
    10    10    11   1
    11    11    12   1
    12    12    13   1
    13    13    14   1
    14    14    15   1
    15    15    16   1
    16    16    17   1
    17    17    18   1
    18    18    19   1
    19    19    20   1
    20     4    21   1
    21     4    22   1
    22     5    23   1
    23     5    24   1
    24     6    25   1
    25     6    26   1
    26     7    27   1
    27     7    28   1
    28     8    29   1
    29     8    30   1
    30     9    31   1
    31     9    32   1
    32    10    33   1
    33    10    34   1
    34    11    35   1
    35    11    36   1
    36    12    37   1
    37    12    38   1
    38    13    39   1
    39    13    40   1
    40    14    41   1
    41    14    42   1
    42    15    43   1
    43    15    44   1
    44    16    45   1
    45    16    46   1
    46    17    47   1
    47    17    48   1
    48    18    49   1
    49    18    50   1
    50    19    51   1
    51    19    52   1
    52    20    53   1
    53    20    54   1
    54    20    55   1
@<TRIPOS>SUBSTRUCTURE
     1  STE      1

