@<TRIPOS>MOLECULE
3uex_ligand_059
    55    54
SMALL
GAST_HUCK
****
This file was generated by PARSER (from files_GN.cpp)

@<TRIPOS>ATOM
      1 C1         -7.4842    1.8252   22.5107 C.2         1 STE       0.0348
      2 O1         -7.9062    0.7425   21.8156 O.co2       1 STE      -0.5690
      3 O2         -7.8874    1.9817   23.7957 O.co2       1 STE      -0.5690
      4 C2         -6.6745    2.8691   21.8495 C.3         1 STE       0.0002
      5 C3         -5.4295    3.3016   22.6797 C.3         1 STE      -0.0414
      6 C4         -4.3316    2.2033   22.8570 C.3         1 STE      -0.0516
      7 C5         -3.3287    2.1198   21.6611 C.3         1 STE      -0.0530
      8 C6         -2.0115    2.9342   21.8773 C.3         1 STE      -0.0531
      9 C7         -1.3801    3.4263   20.5429 C.3         1 STE      -0.0531
     10 C8         -0.1623    4.3832   20.6859 C.3         1 STE      -0.0531
     11 C9         -0.3597    5.7115   21.4778 C.3         1 STE      -0.0531
     12 C10        -1.5559    6.6135   21.0374 C.3         1 STE      -0.0531
     13 C11        -2.8498    6.3651   21.8726 C.3         1 STE      -0.0531
     14 C12        -3.9429    7.4769   21.8056 C.3         1 STE      -0.0531
     15 C13        -5.0083    7.2914   20.6801 C.3         1 STE      -0.0531
     16 C14        -4.6544    7.9867   19.3378 C.3         1 STE      -0.0531
     17 C15        -5.3627    7.3642   18.1036 C.3         1 STE      -0.0531
     18 C16        -6.8447    7.7652   17.8496 C.3         1 STE      -0.0533
     19 C17        -7.2426    9.1699   18.3640 C.3         1 STE      -0.0559
     20 C18        -8.6465    9.6166   17.9062 C.3         1 STE      -0.0653
     21 H1         -7.3064    3.7498   21.7106 H           1 STE       0.0430
     22 H2         -6.3532    2.5255   20.8618 H           1 STE       0.0430
     23 H3         -5.7560    3.6219   23.6725 H           1 STE       0.0283
     24 H4         -4.9762    4.1745   22.1959 H           1 STE       0.0283
     25 H5         -4.8037    1.2291   22.9799 H           1 STE       0.0266
     26 H6         -3.7601    2.4046   23.7700 H           1 STE       0.0266
     27 H7         -3.8331    2.4509   20.7462 H           1 STE       0.0265
     28 H8         -3.0485    1.0685   21.5049 H           1 STE       0.0265
     29 H9         -1.2817    2.3044   22.4040 H           1 STE       0.0265
     30 H10        -2.2009    3.8029   22.5152 H           1 STE       0.0265
     31 H11        -2.1437    3.9177   19.9296 H           1 STE       0.0265
     32 H12        -1.0304    2.5492   19.9884 H           1 STE       0.0265
     33 H13         0.1830    4.6476   19.6812 H           1 STE       0.0265
     34 H14         0.6523    3.8348   21.1733 H           1 STE       0.0265
     35 H15         0.5563    6.3048   21.3445 H           1 STE       0.0265
     36 H16        -0.4256    5.4893   22.5498 H           1 STE       0.0265
     37 H17        -1.7623    6.4449   19.9785 H           1 STE       0.0265
     38 H18        -1.2782    7.6654   21.1596 H           1 STE       0.0265
     39 H19        -2.5626    6.2601   22.9266 H           1 STE       0.0265
     40 H20        -3.3049    5.4238   21.5646 H           1 STE       0.0265
     41 H21        -3.4781    8.4633   21.7352 H           1 STE       0.0265
     42 H22        -4.4828    7.4450   22.7604 H           1 STE       0.0265
     43 H23        -5.9483    7.7312   21.0364 H           1 STE       0.0265
     44 H24        -5.1944    6.2249   20.5097 H           1 STE       0.0265
     45 H25        -3.5816    7.9037   19.1552 H           1 STE       0.0265
     46 H26        -4.9063    9.0455   19.3943 H           1 STE       0.0265
     47 H27        -5.3203    6.2717   18.1882 H           1 STE       0.0265
     48 H28        -4.7808    7.6324   17.2134 H           1 STE       0.0265
     49 H29        -7.5074    7.0192   18.3021 H           1 STE       0.0265
     50 H30        -6.9998    7.7266   16.7659 H           1 STE       0.0265
     51 H31        -6.5079    9.9133   18.0282 H           1 STE       0.0263
     52 H32        -7.2258    9.1654   19.4602 H           1 STE       0.0263
     53 H33        -8.9114   10.5700   18.3689 H           1 STE       0.0230
     54 H34        -9.4032    8.8725   18.1787 H           1 STE       0.0230
     55 H35        -8.6623    9.7516   16.8175 H           1 STE       0.0230
@<TRIPOS>BOND
     1     1     2  ar
     2     1     3  ar
     3     1     4   1
     4     4     5   1
     5     5     6   1
     6     6     7   1
     7     7     8   1
     8     8     9   1
     9     9    10   1
    10    10    11   1
    11    11    12   1
    12    12    13   1
    13    13    14   1
    14    14    15   1
    15    15    16   1
    16    16    17   1
    17    17    18   1
    18    18    19   1
    19    19    20   1
    20     4    21   1
    21     4    22   1
    22     5    23   1
    23     5    24   1
    24     6    25   1
    25     6    26   1
    26     7    27   1
    27     7    28   1
    28     8    29   1
    29     8    30   1
    30     9    31   1
    31     9    32   1
    32    10    33   1
    33    10    34   1
    34    11    35   1
    35    11    36   1
    36    12    37   1
    37    12    38   1
    38    13    39   1
    39    13    40   1
    40    14    41   1
    41    14    42   1
    42    15    43   1
    43    15    44   1
    44    16    45   1
    45    16    46   1
    46    17    47   1
    47    17    48   1
    48    18    49   1
    49    18    50   1
    50    19    51   1
    51    19    52   1
    52    20    53   1
    53    20    54   1
    54    20    55   1
@<TRIPOS>SUBSTRUCTURE
     1  STE      1

