@<TRIPOS>MOLECULE
3uex_ligand_063
    55    54
SMALL
GAST_HUCK
****
This file was generated by PARSER (from files_GN.cpp)

@<TRIPOS>ATOM
      1 C1         -1.6374    4.7309   12.5095 C.2         1 STE       0.0348
      2 O1         -1.6763    3.6539   11.6821 O.co2       1 STE      -0.5690
      3 O2         -1.3871    5.9449   11.9651 O.co2       1 STE      -0.5690
      4 C2         -1.7979    4.6193   13.9764 C.3         1 STE       0.0002
      5 C3         -1.7862    3.1585   14.5069 C.3         1 STE      -0.0414
      6 C4         -1.8690    3.0468   16.0574 C.3         1 STE      -0.0516
      7 C5         -3.2864    3.2553   16.6685 C.3         1 STE      -0.0530
      8 C6         -3.5222    4.5673   17.4762 C.3         1 STE      -0.0531
      9 C7         -2.7369    4.6478   18.8221 C.3         1 STE      -0.0531
     10 C8         -3.2857    5.7229   19.8103 C.3         1 STE      -0.0531
     11 C9         -4.5180    5.2754   20.6674 C.3         1 STE      -0.0531
     12 C10        -5.9256    5.6966   20.1692 C.3         1 STE      -0.0531
     13 C11        -6.1734    7.2362   20.1658 C.3         1 STE      -0.0531
     14 C12        -7.6676    7.6512   20.0424 C.3         1 STE      -0.0531
     15 C13        -8.5752    7.1287   21.1912 C.3         1 STE      -0.0531
     16 C14        -9.7828    8.0551   21.5309 C.3         1 STE      -0.0531
     17 C15       -10.8317    7.4800   22.5217 C.3         1 STE      -0.0531
     18 C16       -10.8346    5.9463   22.7750 C.3         1 STE      -0.0533
     19 C17       -11.5541    5.0879   21.6734 C.3         1 STE      -0.0559
     20 C18       -10.8118    3.7768   21.2911 C.3         1 STE      -0.0653
     21 H1         -2.7391    5.1014   14.2452 H           1 STE       0.0430
     22 H2         -0.9798    5.1739   14.4415 H           1 STE       0.0430
     23 H3         -0.8577    2.6839   14.1832 H           1 STE       0.0283
     24 H4         -2.6153    2.6061   14.0575 H           1 STE       0.0283
     25 H5         -1.1437    3.7311   16.5044 H           1 STE       0.0266
     26 H6         -1.5368    2.0318   16.3093 H           1 STE       0.0266
     27 H7         -3.4985    2.4161   17.3428 H           1 STE       0.0265
     28 H8         -4.0404    3.2073   15.8735 H           1 STE       0.0265
     29 H9         -4.5911    4.6192   17.6864 H           1 STE       0.0265
     30 H10        -3.2674    5.4417   16.8535 H           1 STE       0.0265
     31 H11        -1.6977    4.8963   18.5849 H           1 STE       0.0265
     32 H12        -2.7339    3.6727   19.3132 H           1 STE       0.0265
     33 H13        -3.5002    6.6431   19.2611 H           1 STE       0.0265
     34 H14        -2.4673    5.9544   20.4991 H           1 STE       0.0265
     35 H15        -4.3971    5.6828   21.6829 H           1 STE       0.0265
     36 H16        -4.5132    4.1816   20.7726 H           1 STE       0.0265
     37 H17        -6.6520    5.2249   20.8350 H           1 STE       0.0265
     38 H18        -6.0981    5.2952   19.1603 H           1 STE       0.0265
     39 H19        -5.6359    7.6738   19.3256 H           1 STE       0.0265
     40 H20        -5.7611    7.6644   21.0890 H           1 STE       0.0265
     41 H21        -8.0714    7.3109   19.0848 H           1 STE       0.0265
     42 H22        -7.7048    8.7474   20.0490 H           1 STE       0.0265
     43 H23        -7.9833    7.0107   22.1068 H           1 STE       0.0265
     44 H24        -8.9532    6.1510   20.8906 H           1 STE       0.0265
     45 H25       -10.2884    8.3864   20.6052 H           1 STE       0.0265
     46 H26        -9.3597    8.9603   21.9994 H           1 STE       0.0265
     47 H27       -11.8299    7.7897   22.1771 H           1 STE       0.0265
     48 H28       -10.6814    7.9859   23.4874 H           1 STE       0.0265
     49 H29       -11.3535    5.7923   23.7282 H           1 STE       0.0265
     50 H30        -9.7906    5.6197   22.9231 H           1 STE       0.0265
     51 H31       -11.7069    5.6722   20.7632 H           1 STE       0.0263
     52 H32       -12.5387    4.8067   22.0611 H           1 STE       0.0263
     53 H33       -11.4920    3.1339   20.7108 H           1 STE       0.0230
     54 H34       -10.4907    3.2329   22.1982 H           1 STE       0.0230
     55 H35        -9.9271    4.0102   20.6706 H           1 STE       0.0230
@<TRIPOS>BOND
     1     1     2  ar
     2     1     3  ar
     3     1     4   1
     4     4     5   1
     5     5     6   1
     6     6     7   1
     7     7     8   1
     8     8     9   1
     9     9    10   1
    10    10    11   1
    11    11    12   1
    12    12    13   1
    13    13    14   1
    14    14    15   1
    15    15    16   1
    16    16    17   1
    17    17    18   1
    18    18    19   1
    19    19    20   1
    20     4    21   1
    21     4    22   1
    22     5    23   1
    23     5    24   1
    24     6    25   1
    25     6    26   1
    26     7    27   1
    27     7    28   1
    28     8    29   1
    29     8    30   1
    30     9    31   1
    31     9    32   1
    32    10    33   1
    33    10    34   1
    34    11    35   1
    35    11    36   1
    36    12    37   1
    37    12    38   1
    38    13    39   1
    39    13    40   1
    40    14    41   1
    41    14    42   1
    42    15    43   1
    43    15    44   1
    44    16    45   1
    45    16    46   1
    46    17    47   1
    47    17    48   1
    48    18    49   1
    49    18    50   1
    50    19    51   1
    51    19    52   1
    52    20    53   1
    53    20    54   1
    54    20    55   1
@<TRIPOS>SUBSTRUCTURE
     1  STE      1

