@<TRIPOS>MOLECULE
3uex_ligand_008
    55    54
SMALL
GAST_HUCK
****
This file was generated by PARSER (from files_GN.cpp)

@<TRIPOS>ATOM
      1 C1         -3.7283    0.2531   14.1909 C.2         1 STE       0.0348
      2 O1         -5.0780    0.2637   14.1638 O.co2       1 STE      -0.5690
      3 O2         -3.0892   -0.6625   14.9688 O.co2       1 STE      -0.5690
      4 C2         -2.9667    1.1601   13.3336 C.3         1 STE       0.0002
      5 C3         -2.2909    2.3243   14.1016 C.3         1 STE      -0.0414
      6 C4         -2.9162    2.7087   15.4702 C.3         1 STE      -0.0516
      7 C5         -2.5877    4.1834   15.8623 C.3         1 STE      -0.0530
      8 C6         -3.0056    4.5973   17.3088 C.3         1 STE      -0.0531
      9 C7         -3.8885    5.8719   17.3651 C.3         1 STE      -0.0531
     10 C8         -3.8505    6.6085   18.7438 C.3         1 STE      -0.0531
     11 C9         -4.8101    7.8449   18.7843 C.3         1 STE      -0.0531
     12 C10        -4.1491    9.2576   18.9255 C.3         1 STE      -0.0531
     13 C11        -2.8449    9.5313   18.1037 C.3         1 STE      -0.0531
     14 C12        -2.6655   10.9782   17.5567 C.3         1 STE      -0.0531
     15 C13        -3.1429   12.1617   18.4655 C.3         1 STE      -0.0531
     16 C14        -4.2706   13.0546   17.8257 C.3         1 STE      -0.0531
     17 C15        -3.8099   14.5016   17.4637 C.3         1 STE      -0.0531
     18 C16        -3.7135   15.4212   18.7188 C.3         1 STE      -0.0533
     19 C17        -2.8698   16.7108   18.5122 C.3         1 STE      -0.0559
     20 C18        -1.4384   16.6021   19.0905 C.3         1 STE      -0.0653
     21 H1         -3.6329    1.5823   12.5776 H           1 STE       0.0430
     22 H2         -2.2039    0.5926   12.7988 H           1 STE       0.0430
     23 H3         -2.3097    3.1942   13.4423 H           1 STE       0.0283
     24 H4         -1.2358    2.0620   14.2600 H           1 STE       0.0283
     25 H5         -2.4966    2.0465   16.2424 H           1 STE       0.0266
     26 H6         -4.0022    2.5479   15.4572 H           1 STE       0.0266
     27 H7         -3.0587    4.8591   15.1350 H           1 STE       0.0265
     28 H8         -1.5055    4.3232   15.7882 H           1 STE       0.0265
     29 H9         -2.0974    4.8084   17.8894 H           1 STE       0.0265
     30 H10        -3.5293    3.7778   17.8068 H           1 STE       0.0265
     31 H11        -4.9375    5.5961   17.1521 H           1 STE       0.0265
     32 H12        -3.5549    6.5660   16.5821 H           1 STE       0.0265
     33 H13        -2.8195    6.9229   18.9766 H           1 STE       0.0265
     34 H14        -4.1619    5.8932   19.5220 H           1 STE       0.0265
     35 H15        -5.4786    7.7240   19.6492 H           1 STE       0.0265
     36 H16        -5.4569    7.8540   17.8946 H           1 STE       0.0265
     37 H17        -3.9170    9.4129   19.9888 H           1 STE       0.0265
     38 H18        -4.9014   10.0112   18.6469 H           1 STE       0.0265
     39 H19        -2.8189    8.8513   17.2403 H           1 STE       0.0265
     40 H20        -1.9804    9.2703   18.7360 H           1 STE       0.0265
     41 H21        -3.1609   11.0065   16.5768 H           1 STE       0.0265
     42 H22        -1.5913   11.1021   17.3579 H           1 STE       0.0265
     43 H23        -2.2701   12.7919   18.6899 H           1 STE       0.0265
     44 H24        -3.5117   11.7506   19.4161 H           1 STE       0.0265
     45 H25        -5.1154   13.1042   18.5203 H           1 STE       0.0265
     46 H26        -4.6580   12.5905   16.9091 H           1 STE       0.0265
     47 H27        -4.5346   14.9579   16.7772 H           1 STE       0.0265
     48 H28        -2.8456   14.4761   16.9469 H           1 STE       0.0265
     49 H29        -3.3103   14.8573   19.5610 H           1 STE       0.0265
     50 H30        -4.7308   15.7271   18.9829 H           1 STE       0.0265
     51 H31        -3.3636   17.5412   19.0257 H           1 STE       0.0263
     52 H32        -2.8184   16.9674   17.4565 H           1 STE       0.0263
     53 H33        -0.8805   17.5094   18.8639 H           1 STE       0.0230
     54 H34        -0.9146   15.7523   18.6593 H           1 STE       0.0230
     55 H35        -1.4698   16.4831   20.1685 H           1 STE       0.0230
@<TRIPOS>BOND
     1     1     2  ar
     2     1     3  ar
     3     1     4   1
     4     4     5   1
     5     5     6   1
     6     6     7   1
     7     7     8   1
     8     8     9   1
     9     9    10   1
    10    10    11   1
    11    11    12   1
    12    12    13   1
    13    13    14   1
    14    14    15   1
    15    15    16   1
    16    16    17   1
    17    17    18   1
    18    18    19   1
    19    19    20   1
    20     4    21   1
    21     4    22   1
    22     5    23   1
    23     5    24   1
    24     6    25   1
    25     6    26   1
    26     7    27   1
    27     7    28   1
    28     8    29   1
    29     8    30   1
    30     9    31   1
    31     9    32   1
    32    10    33   1
    33    10    34   1
    34    11    35   1
    35    11    36   1
    36    12    37   1
    37    12    38   1
    38    13    39   1
    39    13    40   1
    40    14    41   1
    41    14    42   1
    42    15    43   1
    43    15    44   1
    44    16    45   1
    45    16    46   1
    46    17    47   1
    47    17    48   1
    48    18    49   1
    49    18    50   1
    50    19    51   1
    51    19    52   1
    52    20    53   1
    53    20    54   1
    54    20    55   1
@<TRIPOS>SUBSTRUCTURE
     1  STE      1

