@<TRIPOS>MOLECULE
3uex_ligand_065
    55    54
SMALL
GAST_HUCK
****
This file was generated by PARSER (from files_GN.cpp)

@<TRIPOS>ATOM
      1 C1         -4.4925    0.2205   15.4832 C.2         1 STE       0.0348
      2 O1         -4.1800   -0.9244   16.1498 O.co2       1 STE      -0.5690
      3 O2         -5.4409    0.1762   14.5212 O.co2       1 STE      -0.5690
      4 C2         -3.8122    1.4886   15.7971 C.3         1 STE       0.0002
      5 C3         -3.9526    1.9062   17.2975 C.3         1 STE      -0.0414
      6 C4         -3.4520    3.3562   17.5938 C.3         1 STE      -0.0516
      7 C5         -4.5371    4.4430   17.2934 C.3         1 STE      -0.0530
      8 C6         -4.0400    5.9095   17.4518 C.3         1 STE      -0.0531
      9 C7         -3.7540    6.3471   18.9239 C.3         1 STE      -0.0531
     10 C8         -3.2360    7.8225   18.9909 C.3         1 STE      -0.0531
     11 C9         -3.5194    8.5267   20.3552 C.3         1 STE      -0.0531
     12 C10        -2.8812    9.9435   20.5054 C.3         1 STE      -0.0531
     13 C11        -3.2413   10.9404   19.3667 C.3         1 STE      -0.0531
     14 C12        -2.6287   12.3679   19.5573 C.3         1 STE      -0.0531
     15 C13        -2.4608   13.0941   18.1872 C.3         1 STE      -0.0531
     16 C14        -1.7638   14.4816   18.2410 C.3         1 STE      -0.0531
     17 C15        -2.5622   15.6481   18.8931 C.3         1 STE      -0.0531
     18 C16        -3.9991   15.9252   18.3597 C.3         1 STE      -0.0533
     19 C17        -4.1866   16.0298   16.8195 C.3         1 STE      -0.0559
     20 C18        -3.3333   17.1292   16.1297 C.3         1 STE      -0.0653
     21 H1         -4.2281    2.2791   15.1568 H           1 STE       0.0430
     22 H2         -2.7458    1.3818   15.5565 H           1 STE       0.0430
     23 H3         -3.3484    1.2143   17.8972 H           1 STE       0.0283
     24 H4         -4.9999    1.8030   17.6163 H           1 STE       0.0283
     25 H5         -2.5517    3.5643   16.9894 H           1 STE       0.0266
     26 H6         -3.1824    3.4471   18.6622 H           1 STE       0.0266
     27 H7         -5.4007    4.2830   17.9542 H           1 STE       0.0265
     28 H8         -4.8764    4.3286   16.2546 H           1 STE       0.0265
     29 H9         -4.8262    6.5672   17.0559 H           1 STE       0.0265
     30 H10        -3.1403    6.0527   16.8405 H           1 STE       0.0265
     31 H11        -2.9974    5.6640   19.3528 H           1 STE       0.0265
     32 H12        -4.6880    6.2626   19.5044 H           1 STE       0.0265
     33 H13        -3.7251    8.4149   18.1970 H           1 STE       0.0265
     34 H14        -2.1530    7.8224   18.8074 H           1 STE       0.0265
     35 H15        -3.1302    7.9009   21.1687 H           1 STE       0.0265
     36 H16        -4.6081    8.6144   20.4812 H           1 STE       0.0265
     37 H17        -1.7886    9.8349   20.5383 H           1 STE       0.0265
     38 H18        -3.2114   10.3669   21.4624 H           1 STE       0.0265
     39 H19        -4.3342   11.0368   19.2893 H           1 STE       0.0265
     40 H20        -2.8648   10.5233   18.4278 H           1 STE       0.0265
     41 H21        -1.6454   12.3014   20.0556 H           1 STE       0.0265
     42 H22        -3.2991   12.9597   20.2040 H           1 STE       0.0265
     43 H23        -3.4431   13.2021   17.7059 H           1 STE       0.0265
     44 H24        -1.8309   12.4532   17.5546 H           1 STE       0.0265
     45 H25        -1.5259   14.7684   17.2106 H           1 STE       0.0265
     46 H26        -0.8100   14.3824   18.7745 H           1 STE       0.0265
     47 H27        -1.9689   16.5606   18.7661 H           1 STE       0.0265
     48 H28        -2.6214   15.4586   19.9671 H           1 STE       0.0265
     49 H29        -4.3461   16.8607   18.8181 H           1 STE       0.0265
     50 H30        -4.6567   15.1322   18.7313 H           1 STE       0.0265
     51 H31        -5.2454   16.2559   16.6317 H           1 STE       0.0263
     52 H32        -3.9586   15.0530   16.3701 H           1 STE       0.0263
     53 H33        -3.6414   17.2140   15.0771 H           1 STE       0.0230
     54 H34        -2.2693   16.8581   16.1639 H           1 STE       0.0230
     55 H35        -3.4813   18.1012   16.6223 H           1 STE       0.0230
@<TRIPOS>BOND
     1     1     2  ar
     2     1     3  ar
     3     1     4   1
     4     4     5   1
     5     5     6   1
     6     6     7   1
     7     7     8   1
     8     8     9   1
     9     9    10   1
    10    10    11   1
    11    11    12   1
    12    12    13   1
    13    13    14   1
    14    14    15   1
    15    15    16   1
    16    16    17   1
    17    17    18   1
    18    18    19   1
    19    19    20   1
    20     4    21   1
    21     4    22   1
    22     5    23   1
    23     5    24   1
    24     6    25   1
    25     6    26   1
    26     7    27   1
    27     7    28   1
    28     8    29   1
    29     8    30   1
    30     9    31   1
    31     9    32   1
    32    10    33   1
    33    10    34   1
    34    11    35   1
    35    11    36   1
    36    12    37   1
    37    12    38   1
    38    13    39   1
    39    13    40   1
    40    14    41   1
    41    14    42   1
    42    15    43   1
    43    15    44   1
    44    16    45   1
    45    16    46   1
    46    17    47   1
    47    17    48   1
    48    18    49   1
    49    18    50   1
    50    19    51   1
    51    19    52   1
    52    20    53   1
    53    20    54   1
    54    20    55   1
@<TRIPOS>SUBSTRUCTURE
     1  STE      1

