@<TRIPOS>MOLECULE
3uex_ligand_011
    55    54
SMALL
GAST_HUCK
****
This file was generated by PARSER (from files_GN.cpp)

@<TRIPOS>ATOM
      1 C1         -4.8759   17.3761   16.7918 C.2         1 STE       0.0348
      2 O1         -3.7192   18.0607   16.5970 O.co2       1 STE      -0.5690
      3 O2         -5.9533   17.7082   16.0556 O.co2       1 STE      -0.5690
      4 C2         -4.9630   16.3556   17.8475 C.3         1 STE       0.0002
      5 C3         -4.3756   15.0023   17.3715 C.3         1 STE      -0.0414
      6 C4         -4.5525   13.8637   18.4123 C.3         1 STE      -0.0516
      7 C5         -3.8034   12.5596   18.0051 C.3         1 STE      -0.0530
      8 C6         -2.2748   12.5560   18.3124 C.3         1 STE      -0.0531
      9 C7         -1.9363   12.4973   19.8357 C.3         1 STE      -0.0531
     10 C8         -0.7740   11.5450   20.2343 C.3         1 STE      -0.0531
     11 C9         -1.1011   10.0142   20.2719 C.3         1 STE      -0.0531
     12 C10        -1.0642    9.2600   18.9084 C.3         1 STE      -0.0531
     13 C11        -2.4283    9.1003   18.1685 C.3         1 STE      -0.0531
     14 C12        -3.2013    7.7569   18.3665 C.3         1 STE      -0.0531
     15 C13        -4.5332    7.8580   19.1705 C.3         1 STE      -0.0531
     16 C14        -5.5077    6.7023   18.8106 C.3         1 STE      -0.0531
     17 C15        -6.9519    6.8334   19.3697 C.3         1 STE      -0.0531
     18 C16        -7.6191    8.2396   19.3102 C.3         1 STE      -0.0533
     19 C17        -7.6624    8.9104   17.9075 C.3         1 STE      -0.0559
     20 C18        -8.9684    9.6923   17.6473 C.3         1 STE      -0.0653
     21 H1         -6.0094   16.2167   18.1297 H           1 STE       0.0430
     22 H2         -4.4199   16.7036   18.7264 H           1 STE       0.0430
     23 H3         -3.3081   15.1289   17.1515 H           1 STE       0.0283
     24 H4         -4.8784   14.7044   16.4422 H           1 STE       0.0283
     25 H5         -5.6198   13.6418   18.4953 H           1 STE       0.0266
     26 H6         -4.2017   14.2023   19.3883 H           1 STE       0.0266
     27 H7         -3.9530   12.3783   16.9346 H           1 STE       0.0265
     28 H8         -4.2797   11.7163   18.5187 H           1 STE       0.0265
     29 H9         -1.8153   13.4434   17.8652 H           1 STE       0.0265
     30 H10        -1.8306   11.7034   17.7993 H           1 STE       0.0265
     31 H11        -2.8174   12.2211   20.4160 H           1 STE       0.0265
     32 H12        -1.6663   13.5096   20.1423 H           1 STE       0.0265
     33 H13        -0.4756   11.8250   21.2501 H           1 STE       0.0265
     34 H14         0.0996   11.7281   19.6003 H           1 STE       0.0265
     35 H15        -2.0655    9.8501   20.7591 H           1 STE       0.0265
     36 H16        -0.3431    9.5461   20.9135 H           1 STE       0.0265
     37 H17        -0.6371    8.2623   19.0668 H           1 STE       0.0265
     38 H18        -0.3651    9.7787   18.2472 H           1 STE       0.0265
     39 H19        -2.2168    9.2056   17.1007 H           1 STE       0.0265
     40 H20        -3.0769    9.9296   18.4293 H           1 STE       0.0265
     41 H21        -2.5578    7.0092   18.8390 H           1 STE       0.0265
     42 H22        -3.4326    7.3775   17.3635 H           1 STE       0.0265
     43 H23        -5.0310    8.8010   18.9483 H           1 STE       0.0265
     44 H24        -4.3124    7.8351   20.2411 H           1 STE       0.0265
     45 H25        -5.0929    5.7635   19.1878 H           1 STE       0.0265
     46 H26        -5.5759    6.6160   17.7237 H           1 STE       0.0265
     47 H27        -6.9593    6.4967   20.4111 H           1 STE       0.0265
     48 H28        -7.5907    6.1402   18.8033 H           1 STE       0.0265
     49 H29        -7.0963    8.9078   19.9950 H           1 STE       0.0265
     50 H30        -8.6387    8.1288   19.6856 H           1 STE       0.0265
     51 H31        -7.5507    8.1565   17.1201 H           1 STE       0.0263
     52 H32        -6.8195    9.6030   17.8160 H           1 STE       0.0263
     53 H33        -8.9109   10.1865   16.6780 H           1 STE       0.0230
     54 H34        -9.1186   10.4489   18.4184 H           1 STE       0.0230
     55 H35        -9.8215    9.0123   17.6440 H           1 STE       0.0230
@<TRIPOS>BOND
     1     1     2  ar
     2     1     3  ar
     3     1     4   1
     4     4     5   1
     5     5     6   1
     6     6     7   1
     7     7     8   1
     8     8     9   1
     9     9    10   1
    10    10    11   1
    11    11    12   1
    12    12    13   1
    13    13    14   1
    14    14    15   1
    15    15    16   1
    16    16    17   1
    17    17    18   1
    18    18    19   1
    19    19    20   1
    20     4    21   1
    21     4    22   1
    22     5    23   1
    23     5    24   1
    24     6    25   1
    25     6    26   1
    26     7    27   1
    27     7    28   1
    28     8    29   1
    29     8    30   1
    30     9    31   1
    31     9    32   1
    32    10    33   1
    33    10    34   1
    34    11    35   1
    35    11    36   1
    36    12    37   1
    37    12    38   1
    38    13    39   1
    39    13    40   1
    40    14    41   1
    41    14    42   1
    42    15    43   1
    43    15    44   1
    44    16    45   1
    45    16    46   1
    46    17    47   1
    47    17    48   1
    48    18    49   1
    49    18    50   1
    50    19    51   1
    51    19    52   1
    52    20    53   1
    53    20    54   1
    54    20    55   1
@<TRIPOS>SUBSTRUCTURE
     1  STE      1

