@<TRIPOS>MOLECULE
3uex_ligand_054
    55    54
SMALL
GAST_HUCK
****
This file was generated by PARSER (from files_GN.cpp)

@<TRIPOS>ATOM
      1 C1        -11.2217    3.1971   22.7224 C.2         1 STE       0.0348
      2 O1        -11.2363    2.4088   21.6150 O.co2       1 STE      -0.5690
      3 O2        -11.6726    2.7080   23.9022 O.co2       1 STE      -0.5690
      4 C2        -10.5572    4.5152   22.6860 C.3         1 STE       0.0002
      5 C3        -11.4952    5.6088   22.0816 C.3         1 STE      -0.0414
      6 C4        -11.0941    7.0761   22.4392 C.3         1 STE      -0.0516
      7 C5         -9.9657    7.7412   21.5916 C.3         1 STE      -0.0530
      8 C6         -8.7737    6.8103   21.2266 C.3         1 STE      -0.0531
      9 C7         -7.6742    7.5656   20.4153 C.3         1 STE      -0.0531
     10 C8         -6.8373    6.6601   19.4718 C.3         1 STE      -0.0531
     11 C9         -6.1131    5.4617   20.1772 C.3         1 STE      -0.0531
     12 C10        -4.7365    5.0827   19.5364 C.3         1 STE      -0.0531
     13 C11        -3.4926    5.1140   20.4869 C.3         1 STE      -0.0531
     14 C12        -3.2345    6.3928   21.3442 C.3         1 STE      -0.0531
     15 C13        -3.4507    7.7846   20.6848 C.3         1 STE      -0.0531
     16 C14        -2.6677    8.0217   19.3634 C.3         1 STE      -0.0531
     17 C15        -3.0958    9.3519   18.6841 C.3         1 STE      -0.0531
     18 C16        -2.3100    9.7129   17.3941 C.3         1 STE      -0.0533
     19 C17        -0.7786    9.9374   17.5581 C.3         1 STE      -0.0559
     20 C18        -0.3902   10.9751   18.6383 C.3         1 STE      -0.0653
     21 H1         -9.6310    4.4377   22.0957 H           1 STE       0.0430
     22 H2        -10.2847    4.8082   23.7132 H           1 STE       0.0430
     23 H3        -12.5107    5.4571   22.4744 H           1 STE       0.0283
     24 H4        -11.5434    5.4992   20.9849 H           1 STE       0.0283
     25 H5        -10.8217    7.1361   23.5038 H           1 STE       0.0266
     26 H6        -11.9810    7.7147   22.3083 H           1 STE       0.0266
     27 H7         -9.5899    8.6004   22.1629 H           1 STE       0.0265
     28 H8        -10.4077    8.1304   20.6583 H           1 STE       0.0265
     29 H9         -9.1583    5.9687   20.6361 H           1 STE       0.0265
     30 H10        -8.3288    6.4167   22.1525 H           1 STE       0.0265
     31 H11        -7.0033    8.0774   21.1249 H           1 STE       0.0265
     32 H12        -8.1558    8.3313   19.7888 H           1 STE       0.0265
     33 H13        -6.1004    7.3138   18.9898 H           1 STE       0.0265
     34 H14        -7.4902    6.2627   18.6825 H           1 STE       0.0265
     35 H15        -6.7812    4.5892   20.1207 H           1 STE       0.0265
     36 H16        -5.9707    5.6895   21.2425 H           1 STE       0.0265
     37 H17        -4.5122    5.7298   18.6820 H           1 STE       0.0265
     38 H18        -4.8061    4.0633   19.1394 H           1 STE       0.0265
     39 H19        -2.6009    4.9382   19.8729 H           1 STE       0.0265
     40 H20        -3.5730    4.2663   21.1826 H           1 STE       0.0265
     41 H21        -2.2005    6.3568   21.7122 H           1 STE       0.0265
     42 H22        -3.8885    6.3524   22.2263 H           1 STE       0.0265
     43 H23        -3.1335    8.5481   21.4095 H           1 STE       0.0265
     44 H24        -4.5195    7.9322   20.5100 H           1 STE       0.0265
     45 H25        -2.8430    7.1983   18.6600 H           1 STE       0.0265
     46 H26        -1.5987    8.0520   19.5986 H           1 STE       0.0265
     47 H27        -2.9994   10.1772   19.4019 H           1 STE       0.0265
     48 H28        -4.1549    9.2797   18.4166 H           1 STE       0.0265
     49 H29        -2.7462   10.6246   16.9746 H           1 STE       0.0265
     50 H30        -2.4567    8.9157   16.6542 H           1 STE       0.0265
     51 H31        -0.3825   10.2876   16.5977 H           1 STE       0.0263
     52 H32        -0.2877    8.9907   17.7869 H           1 STE       0.0263
     53 H33         0.6809   11.1849   18.5786 H           1 STE       0.0230
     54 H34        -0.6050   10.5877   19.6408 H           1 STE       0.0230
     55 H35        -0.9369   11.9123   18.4910 H           1 STE       0.0230
@<TRIPOS>BOND
     1     1     2  ar
     2     1     3  ar
     3     1     4   1
     4     4     5   1
     5     5     6   1
     6     6     7   1
     7     7     8   1
     8     8     9   1
     9     9    10   1
    10    10    11   1
    11    11    12   1
    12    12    13   1
    13    13    14   1
    14    14    15   1
    15    15    16   1
    16    16    17   1
    17    17    18   1
    18    18    19   1
    19    19    20   1
    20     4    21   1
    21     4    22   1
    22     5    23   1
    23     5    24   1
    24     6    25   1
    25     6    26   1
    26     7    27   1
    27     7    28   1
    28     8    29   1
    29     8    30   1
    30     9    31   1
    31     9    32   1
    32    10    33   1
    33    10    34   1
    34    11    35   1
    35    11    36   1
    36    12    37   1
    37    12    38   1
    38    13    39   1
    39    13    40   1
    40    14    41   1
    41    14    42   1
    42    15    43   1
    43    15    44   1
    44    16    45   1
    45    16    46   1
    46    17    47   1
    47    17    48   1
    48    18    49   1
    49    18    50   1
    50    19    51   1
    51    19    52   1
    52    20    53   1
    53    20    54   1
    54    20    55   1
@<TRIPOS>SUBSTRUCTURE
     1  STE      1

