@<TRIPOS>MOLECULE
3uex_ligand_042
    55    54
SMALL
GAST_HUCK
****
This file was generated by PARSER (from files_GN.cpp)

@<TRIPOS>ATOM
      1 C1         -0.5589    1.6809   21.0622 C.2         1 STE       0.0348
      2 O1          0.7359    2.0598   21.1475 O.co2       1 STE      -0.5690
      3 O2         -0.9840    1.1131   19.9126 O.co2       1 STE      -0.5690
      4 C2         -1.5417    2.1828   22.0353 C.3         1 STE       0.0002
      5 C3         -2.1688    3.5449   21.6333 C.3         1 STE      -0.0414
      6 C4         -1.1593    4.7163   21.6491 C.3         1 STE      -0.0516
      7 C5         -1.4630    5.8198   20.5988 C.3         1 STE      -0.0530
      8 C6         -0.3927    6.9369   20.6090 C.3         1 STE      -0.0531
      9 C7         -0.8474    8.4245   20.5174 C.3         1 STE      -0.0531
     10 C8         -2.3143    8.7976   20.8551 C.3         1 STE      -0.0531
     11 C9         -3.4364    8.4647   19.8215 C.3         1 STE      -0.0531
     12 C10        -2.9685    7.9651   18.4279 C.3         1 STE      -0.0531
     13 C11        -4.0293    7.2369   17.5530 C.3         1 STE      -0.0531
     14 C12        -4.1723    5.6959   17.7299 C.3         1 STE      -0.0531
     15 C13        -5.3451    5.1719   18.6147 C.3         1 STE      -0.0531
     16 C14        -6.7403    5.8438   18.3783 C.3         1 STE      -0.0531
     17 C15        -7.2412    6.7350   19.5503 C.3         1 STE      -0.0531
     18 C16        -7.0884    8.2732   19.3770 C.3         1 STE      -0.0533
     19 C17        -7.5058    8.8704   18.0028 C.3         1 STE      -0.0559
     20 C18        -8.9179    9.4882   17.9736 C.3         1 STE      -0.0653
     21 H1         -1.0739    2.2613   23.0185 H           1 STE       0.0430
     22 H2         -2.3378    1.4370   22.1191 H           1 STE       0.0430
     23 H3         -2.9715    3.7772   22.3368 H           1 STE       0.0283
     24 H4         -2.6213    3.4566   20.6397 H           1 STE       0.0283
     25 H5         -0.1509    4.3349   21.4623 H           1 STE       0.0266
     26 H6         -1.1743    5.1815   22.6328 H           1 STE       0.0266
     27 H7         -2.4394    6.2510   20.8414 H           1 STE       0.0265
     28 H8         -1.5047    5.3648   19.6081 H           1 STE       0.0265
     29 H9          0.2787    6.7645   19.7632 H           1 STE       0.0265
     30 H10         0.2111    6.8230   21.5069 H           1 STE       0.0265
     31 H11        -0.5834    8.8262   19.5376 H           1 STE       0.0265
     32 H12        -0.2276    8.9746   21.2335 H           1 STE       0.0265
     33 H13        -2.3363    9.8775   21.0201 H           1 STE       0.0265
     34 H14        -2.5762    8.3259   21.8072 H           1 STE       0.0265
     35 H15        -4.0110    9.3775   19.6741 H           1 STE       0.0265
     36 H16        -4.1021    7.7359   20.2555 H           1 STE       0.0265
     37 H17        -2.1283    7.2831   18.5491 H           1 STE       0.0265
     38 H18        -2.5959    8.8275   17.8714 H           1 STE       0.0265
     39 H19        -3.7160    7.4029   16.5175 H           1 STE       0.0265
     40 H20        -4.9928    7.7177   17.6743 H           1 STE       0.0265
     41 H21        -3.2335    5.2894   18.1181 H           1 STE       0.0265
     42 H22        -4.3075    5.2522   16.7409 H           1 STE       0.0265
     43 H23        -5.0560    5.2128   19.6720 H           1 STE       0.0265
     44 H24        -5.4393    4.0976   18.3875 H           1 STE       0.0265
     45 H25        -7.4758    5.0439   18.2381 H           1 STE       0.0265
     46 H26        -6.7430    6.4373   17.4548 H           1 STE       0.0265
     47 H27        -6.7073    6.4454   20.4648 H           1 STE       0.0265
     48 H28        -8.2930    6.5216   19.7366 H           1 STE       0.0265
     49 H29        -6.0428    8.5194   19.5610 H           1 STE       0.0265
     50 H30        -7.6724    8.7676   20.1613 H           1 STE       0.0265
     51 H31        -7.4401    8.0909   17.2370 H           1 STE       0.0263
     52 H32        -6.7865    9.6575   17.7385 H           1 STE       0.0263
     53 H33        -9.1911    9.7278   16.9478 H           1 STE       0.0230
     54 H34        -8.9391   10.4153   18.5499 H           1 STE       0.0230
     55 H35        -9.6614    8.8036   18.3787 H           1 STE       0.0230
@<TRIPOS>BOND
     1     1     2  ar
     2     1     3  ar
     3     1     4   1
     4     4     5   1
     5     5     6   1
     6     6     7   1
     7     7     8   1
     8     8     9   1
     9     9    10   1
    10    10    11   1
    11    11    12   1
    12    12    13   1
    13    13    14   1
    14    14    15   1
    15    15    16   1
    16    16    17   1
    17    17    18   1
    18    18    19   1
    19    19    20   1
    20     4    21   1
    21     4    22   1
    22     5    23   1
    23     5    24   1
    24     6    25   1
    25     6    26   1
    26     7    27   1
    27     7    28   1
    28     8    29   1
    29     8    30   1
    30     9    31   1
    31     9    32   1
    32    10    33   1
    33    10    34   1
    34    11    35   1
    35    11    36   1
    36    12    37   1
    37    12    38   1
    38    13    39   1
    39    13    40   1
    40    14    41   1
    41    14    42   1
    42    15    43   1
    43    15    44   1
    44    16    45   1
    45    16    46   1
    46    17    47   1
    47    17    48   1
    48    18    49   1
    49    18    50   1
    50    19    51   1
    51    19    52   1
    52    20    53   1
    53    20    54   1
    54    20    55   1
@<TRIPOS>SUBSTRUCTURE
     1  STE      1

