@<TRIPOS>MOLECULE
3uex_ligand_030
    55    54
SMALL
GAST_HUCK
****
This file was generated by PARSER (from files_GN.cpp)

@<TRIPOS>ATOM
      1 C1         -7.6198    3.6428   15.3131 C.2         1 STE       0.0348
      2 O1         -7.3836    4.2946   14.1493 O.co2       1 STE      -0.5690
      3 O2         -8.8387    3.7818   15.8826 O.co2       1 STE      -0.5690
      4 C2         -6.6848    2.6003   15.8106 C.3         1 STE       0.0002
      5 C3         -5.8797    3.0448   17.0679 C.3         1 STE      -0.0414
      6 C4         -6.7504    3.3979   18.3397 C.3         1 STE      -0.0516
      7 C5         -6.3278    4.7289   19.0386 C.3         1 STE      -0.0530
      8 C6         -6.7917    5.9973   18.2596 C.3         1 STE      -0.0531
      9 C7         -5.7699    7.1810   18.1989 C.3         1 STE      -0.0531
     10 C8         -4.2942    6.7697   17.8762 C.3         1 STE      -0.0531
     11 C9         -3.3186    6.8577   19.0823 C.3         1 STE      -0.0531
     12 C10        -2.9382    8.3266   19.4436 C.3         1 STE      -0.0531
     13 C11        -2.0061    8.4726   20.6785 C.3         1 STE      -0.0531
     14 C12        -0.6256    7.7275   20.5664 C.3         1 STE      -0.0531
     15 C13        -0.6508    6.2045   20.9447 C.3         1 STE      -0.0531
     16 C14         0.1272    5.2864   19.9569 C.3         1 STE      -0.0531
     17 C15         0.4837    3.8858   20.5186 C.3         1 STE      -0.0531
     18 C16        -0.7091    3.0868   21.1236 C.3         1 STE      -0.0533
     19 C17        -0.4304    1.5697   21.3314 C.3         1 STE      -0.0559
     20 C18         0.2247    1.2152   22.6870 C.3         1 STE      -0.0653
     21 H1         -5.9487    2.3805   15.0286 H           1 STE       0.0430
     22 H2         -7.2366    1.6720   16.0294 H           1 STE       0.0430
     23 H3         -5.2379    3.8974   16.7907 H           1 STE       0.0283
     24 H4         -5.2066    2.2138   17.3471 H           1 STE       0.0283
     25 H5         -6.6366    2.5860   19.0738 H           1 STE       0.0266
     26 H6         -7.8235    3.4566   18.0792 H           1 STE       0.0266
     27 H7         -5.2365    4.7166   19.1555 H           1 STE       0.0265
     28 H8         -6.7788    4.7664   20.0407 H           1 STE       0.0265
     29 H9         -7.7103    6.3828   18.7243 H           1 STE       0.0265
     30 H10        -7.0438    5.7577   17.2135 H           1 STE       0.0265
     31 H11        -5.8355    7.7634   19.1408 H           1 STE       0.0265
     32 H12        -6.1129    7.8511   17.3954 H           1 STE       0.0265
     33 H13        -3.9051    7.4036   17.0614 H           1 STE       0.0265
     34 H14        -4.2782    5.7389   17.5030 H           1 STE       0.0265
     35 H15        -2.4068    6.3123   18.8225 H           1 STE       0.0265
     36 H16        -3.7754    6.3671   19.9566 H           1 STE       0.0265
     37 H17        -3.8587    8.8876   19.6511 H           1 STE       0.0265
     38 H18        -2.4453    8.8021   18.5810 H           1 STE       0.0265
     39 H19        -2.5424    8.1528   21.5781 H           1 STE       0.0265
     40 H20        -1.8019    9.5430   20.7892 H           1 STE       0.0265
     41 H21         0.0775    8.2311   21.2482 H           1 STE       0.0265
     42 H22        -0.2231    7.8681   19.5578 H           1 STE       0.0265
     43 H23        -1.6856    5.8621   21.0004 H           1 STE       0.0265
     44 H24        -0.2086    6.0796   21.9409 H           1 STE       0.0265
     45 H25         1.0624    5.7872   19.6904 H           1 STE       0.0265
     46 H26        -0.4609    5.1721   19.0404 H           1 STE       0.0265
     47 H27         1.2611    3.9960   21.2759 H           1 STE       0.0265
     48 H28         0.9030    3.2956   19.6995 H           1 STE       0.0265
     49 H29        -1.5707    3.1828   20.4504 H           1 STE       0.0265
     50 H30        -0.9936    3.5185   22.0902 H           1 STE       0.0265
     51 H31         0.2015    1.2044   20.5150 H           1 STE       0.0263
     52 H32        -1.3893    1.0398   21.2618 H           1 STE       0.0263
     53 H33         0.3843    0.1409   22.7411 H           1 STE       0.0230
     54 H34        -0.4200    1.5142   23.5127 H           1 STE       0.0230
     55 H35         1.1867    1.7108   22.7916 H           1 STE       0.0230
@<TRIPOS>BOND
     1     1     2  ar
     2     1     3  ar
     3     1     4   1
     4     4     5   1
     5     5     6   1
     6     6     7   1
     7     7     8   1
     8     8     9   1
     9     9    10   1
    10    10    11   1
    11    11    12   1
    12    12    13   1
    13    13    14   1
    14    14    15   1
    15    15    16   1
    16    16    17   1
    17    17    18   1
    18    18    19   1
    19    19    20   1
    20     4    21   1
    21     4    22   1
    22     5    23   1
    23     5    24   1
    24     6    25   1
    25     6    26   1
    26     7    27   1
    27     7    28   1
    28     8    29   1
    29     8    30   1
    30     9    31   1
    31     9    32   1
    32    10    33   1
    33    10    34   1
    34    11    35   1
    35    11    36   1
    36    12    37   1
    37    12    38   1
    38    13    39   1
    39    13    40   1
    40    14    41   1
    41    14    42   1
    42    15    43   1
    43    15    44   1
    44    16    45   1
    45    16    46   1
    46    17    47   1
    47    17    48   1
    48    18    49   1
    49    18    50   1
    50    19    51   1
    51    19    52   1
    52    20    53   1
    53    20    54   1
    54    20    55   1
@<TRIPOS>SUBSTRUCTURE
     1  STE      1

