@<TRIPOS>MOLECULE
3uex_ligand_029
    55    54
SMALL
GAST_HUCK
****
This file was generated by PARSER (from files_GN.cpp)

@<TRIPOS>ATOM
      1 C1        -10.9144    2.2778   23.6965 C.2         1 STE       0.0348
      2 O1        -11.0581    2.6138   25.0009 O.co2       1 STE      -0.5690
      3 O2        -10.2846    1.1246   23.3752 O.co2       1 STE      -0.5690
      4 C2        -11.4683    3.1598   22.6544 C.3         1 STE       0.0002
      5 C3        -10.7430    4.5363   22.6277 C.3         1 STE      -0.0414
      6 C4        -11.6335    5.6736   22.0484 C.3         1 STE      -0.0516
      7 C5        -11.2076    7.1098   22.4890 C.3         1 STE      -0.0530
      8 C6        -10.0617    7.7803   21.6822 C.3         1 STE      -0.0531
      9 C7         -8.8698    6.8515   21.3175 C.3         1 STE      -0.0531
     10 C8         -7.6590    7.5818   20.6656 C.3         1 STE      -0.0531
     11 C9         -7.8377    7.9369   19.1578 C.3         1 STE      -0.0531
     12 C10        -6.7470    8.8999   18.6008 C.3         1 STE      -0.0531
     13 C11        -5.2839    8.3458   18.6358 C.3         1 STE      -0.0531
     14 C12        -4.2262    9.4773   18.8023 C.3         1 STE      -0.0531
     15 C13        -2.7606    9.0924   18.4562 C.3         1 STE      -0.0531
     16 C14        -2.0950    7.9841   19.3247 C.3         1 STE      -0.0531
     17 C15        -2.1400    8.1894   20.8761 C.3         1 STE      -0.0531
     18 C16        -3.0930    7.2403   21.6631 C.3         1 STE      -0.0533
     19 C17        -2.7969    5.7120   21.5533 C.3         1 STE      -0.0559
     20 C18        -1.5465    5.2292   22.3293 C.3         1 STE      -0.0653
     21 H1        -12.5352    3.2936   22.8581 H           1 STE       0.0430
     22 H2        -11.3658    2.6852   21.6733 H           1 STE       0.0430
     23 H3         -9.8344    4.4432   22.0253 H           1 STE       0.0283
     24 H4        -10.4504    4.8105   23.6473 H           1 STE       0.0283
     25 H5        -12.6580    5.5224   22.4049 H           1 STE       0.0266
     26 H6        -11.6590    5.6126   20.9566 H           1 STE       0.0266
     27 H7        -10.9422    7.1092   23.5494 H           1 STE       0.0265
     28 H8        -12.0770    7.7679   22.3908 H           1 STE       0.0265
     29 H9         -9.6787    8.6081   22.2890 H           1 STE       0.0265
     30 H10       -10.4794    8.2047   20.7659 H           1 STE       0.0265
     31 H11        -9.2023    6.0540   20.6475 H           1 STE       0.0265
     32 H12        -8.5160    6.3795   22.2362 H           1 STE       0.0265
     33 H13        -6.7839    6.9295   20.7566 H           1 STE       0.0265
     34 H14        -7.4538    8.4935   21.2363 H           1 STE       0.0265
     35 H15        -8.8025    8.4278   19.0134 H           1 STE       0.0265
     36 H16        -7.8407    7.0156   18.5675 H           1 STE       0.0265
     37 H17        -6.8164    9.8388   19.1628 H           1 STE       0.0265
     38 H18        -6.9988    9.1407   17.5596 H           1 STE       0.0265
     39 H19        -5.0910    7.7891   17.7076 H           1 STE       0.0265
     40 H20        -5.1678    7.6491   19.4734 H           1 STE       0.0265
     41 H21        -4.2601    9.8315   19.8366 H           1 STE       0.0265
     42 H22        -4.5064   10.3185   18.1569 H           1 STE       0.0265
     43 H23        -2.1493    9.9974   18.5300 H           1 STE       0.0265
     44 H24        -2.7329    8.7659   17.4105 H           1 STE       0.0265
     45 H25        -1.0390    7.9472   19.0284 H           1 STE       0.0265
     46 H26        -2.5287    7.0201   19.0467 H           1 STE       0.0265
     47 H27        -2.4380    9.2202   21.0936 H           1 STE       0.0265
     48 H28        -1.1259    8.0821   21.2763 H           1 STE       0.0265
     49 H29        -4.1139    7.4210   21.3052 H           1 STE       0.0265
     50 H30        -3.0566    7.5229   22.7230 H           1 STE       0.0265
     51 H31        -2.6886    5.4261   20.5006 H           1 STE       0.0263
     52 H32        -3.6657    5.1764   21.9537 H           1 STE       0.0263
     53 H33        -1.4254    4.1503   22.1875 H           1 STE       0.0230
     54 H34        -1.6617    5.4295   23.3995 H           1 STE       0.0230
     55 H35        -0.6450    5.7281   21.9639 H           1 STE       0.0230
@<TRIPOS>BOND
     1     1     2  ar
     2     1     3  ar
     3     1     4   1
     4     4     5   1
     5     5     6   1
     6     6     7   1
     7     7     8   1
     8     8     9   1
     9     9    10   1
    10    10    11   1
    11    11    12   1
    12    12    13   1
    13    13    14   1
    14    14    15   1
    15    15    16   1
    16    16    17   1
    17    17    18   1
    18    18    19   1
    19    19    20   1
    20     4    21   1
    21     4    22   1
    22     5    23   1
    23     5    24   1
    24     6    25   1
    25     6    26   1
    26     7    27   1
    27     7    28   1
    28     8    29   1
    29     8    30   1
    30     9    31   1
    31     9    32   1
    32    10    33   1
    33    10    34   1
    34    11    35   1
    35    11    36   1
    36    12    37   1
    37    12    38   1
    38    13    39   1
    39    13    40   1
    40    14    41   1
    41    14    42   1
    42    15    43   1
    43    15    44   1
    44    16    45   1
    45    16    46   1
    46    17    47   1
    47    17    48   1
    48    18    49   1
    49    18    50   1
    50    19    51   1
    51    19    52   1
    52    20    53   1
    53    20    54   1
    54    20    55   1
@<TRIPOS>SUBSTRUCTURE
     1  STE      1

