@<TRIPOS>MOLECULE
3uex_ligand_013
    55    54
SMALL
GAST_HUCK
****
This file was generated by PARSER (from files_GN.cpp)

@<TRIPOS>ATOM
      1 C1         -4.5569    0.1572   15.1183 C.2         1 STE       0.0348
      2 O1         -5.2325   -0.0348   13.9602 O.co2       1 STE      -0.5690
      3 O2         -3.7962   -0.8518   15.6043 O.co2       1 STE      -0.5690
      4 C2         -4.5654    1.4806   15.7688 C.3         1 STE       0.0002
      5 C3         -5.9371    1.8502   16.4162 C.3         1 STE      -0.0414
      6 C4         -6.4905    3.2350   15.9759 C.3         1 STE      -0.0516
      7 C5         -7.6318    3.7680   16.8892 C.3         1 STE      -0.0530
      8 C6         -7.1502    4.5757   18.1369 C.3         1 STE      -0.0531
      9 C7         -6.5989    6.0060   17.8166 C.3         1 STE      -0.0531
     10 C8         -5.0541    6.1577   17.9471 C.3         1 STE      -0.0531
     11 C9         -4.5364    6.3484   19.4045 C.3         1 STE      -0.0531
     12 C10        -4.6179    7.7801   20.0066 C.3         1 STE      -0.0531
     13 C11        -4.0705    8.9580   19.1474 C.3         1 STE      -0.0531
     14 C12        -2.6159    8.8396   18.6039 C.3         1 STE      -0.0531
     15 C13        -1.4688    9.2093   19.5942 C.3         1 STE      -0.0531
     16 C14        -0.9293    8.0824   20.5190 C.3         1 STE      -0.0531
     17 C15        -0.2691    6.8840   19.7728 C.3         1 STE      -0.0531
     18 C16         0.6325    5.9817   20.6733 C.3         1 STE      -0.0533
     19 C17         0.1774    4.5091   20.8510 C.3         1 STE      -0.0559
     20 C18         0.1354    3.6755   19.5550 C.3         1 STE      -0.0653
     21 H1         -4.2732    2.2155   15.0156 H           1 STE       0.0430
     22 H2         -3.7921    1.4999   16.5456 H           1 STE       0.0430
     23 H3         -5.8176    1.8316   17.5041 H           1 STE       0.0283
     24 H4         -6.6985    1.1000   16.1674 H           1 STE       0.0283
     25 H5         -6.8743    3.1265   14.9575 H           1 STE       0.0266
     26 H6         -5.6810    3.9634   15.9333 H           1 STE       0.0266
     27 H7         -8.2500    2.9255   17.2242 H           1 STE       0.0265
     28 H8         -8.2844    4.4113   16.2882 H           1 STE       0.0265
     29 H9         -6.4114    3.9829   18.6744 H           1 STE       0.0265
     30 H10        -8.0124    4.6769   18.8048 H           1 STE       0.0265
     31 H11        -7.0860    6.7321   18.4739 H           1 STE       0.0265
     32 H12        -6.8844    6.2828   16.7947 H           1 STE       0.0265
     33 H13        -4.7372    6.9939   17.3234 H           1 STE       0.0265
     34 H14        -4.5730    5.2712   17.5312 H           1 STE       0.0265
     35 H15        -3.4896    6.0349   19.4247 H           1 STE       0.0265
     36 H16        -5.0786    5.6662   20.0658 H           1 STE       0.0265
     37 H17        -4.0789    7.7799   20.9607 H           1 STE       0.0265
     38 H18        -5.6659    7.9951   20.2412 H           1 STE       0.0265
     39 H19        -4.1559    9.8771   19.7334 H           1 STE       0.0265
     40 H20        -4.7475    9.0793   18.2957 H           1 STE       0.0265
     41 H21        -2.5462    9.5432   17.7614 H           1 STE       0.0265
     42 H22        -2.4620    7.8390   18.1855 H           1 STE       0.0265
     43 H23        -1.7950   10.0498   20.2225 H           1 STE       0.0265
     44 H24        -0.6199    9.5776   19.0037 H           1 STE       0.0265
     45 H25        -1.7277    7.7124   21.1723 H           1 STE       0.0265
     46 H26        -0.1784    8.5531   21.1635 H           1 STE       0.0265
     47 H27         0.3471    7.2798   18.9488 H           1 STE       0.0265
     48 H28        -1.0671    6.2724   19.3317 H           1 STE       0.0265
     49 H29         0.7251    6.4137   21.6734 H           1 STE       0.0265
     50 H30         1.6425    5.9679   20.2539 H           1 STE       0.0265
     51 H31        -0.8107    4.4906   21.3211 H           1 STE       0.0263
     52 H32         0.8744    4.0293   21.5454 H           1 STE       0.0263
     53 H33         0.1705    2.6172   19.7989 H           1 STE       0.0230
     54 H34         0.9844    3.9093   18.9181 H           1 STE       0.0230
     55 H35        -0.7822    3.8774   19.0013 H           1 STE       0.0230
@<TRIPOS>BOND
     1     1     2  ar
     2     1     3  ar
     3     1     4   1
     4     4     5   1
     5     5     6   1
     6     6     7   1
     7     7     8   1
     8     8     9   1
     9     9    10   1
    10    10    11   1
    11    11    12   1
    12    12    13   1
    13    13    14   1
    14    14    15   1
    15    15    16   1
    16    16    17   1
    17    17    18   1
    18    18    19   1
    19    19    20   1
    20     4    21   1
    21     4    22   1
    22     5    23   1
    23     5    24   1
    24     6    25   1
    25     6    26   1
    26     7    27   1
    27     7    28   1
    28     8    29   1
    29     8    30   1
    30     9    31   1
    31     9    32   1
    32    10    33   1
    33    10    34   1
    34    11    35   1
    35    11    36   1
    36    12    37   1
    37    12    38   1
    38    13    39   1
    39    13    40   1
    40    14    41   1
    41    14    42   1
    42    15    43   1
    43    15    44   1
    44    16    45   1
    45    16    46   1
    46    17    47   1
    47    17    48   1
    48    18    49   1
    49    18    50   1
    50    19    51   1
    51    19    52   1
    52    20    53   1
    53    20    54   1
    54    20    55   1
@<TRIPOS>SUBSTRUCTURE
     1  STE      1

