@<TRIPOS>MOLECULE
3uex_ligand_018
    55    54
SMALL
GAST_HUCK
****
This file was generated by PARSER (from files_GN.cpp)

@<TRIPOS>ATOM
      1 C1         -0.0712    1.1577   22.3470 C.2         1 STE       0.0348
      2 O1          0.9801    1.9493   22.0250 O.co2       1 STE      -0.5690
      3 O2         -0.5395    1.2230   23.6148 O.co2       1 STE      -0.5690
      4 C2         -0.3359   -0.0597   21.5555 C.3         1 STE       0.0002
      5 C3          0.1974   -0.0352   20.0938 C.3         1 STE      -0.0414
      6 C4         -0.7098    0.6771   19.0430 C.3         1 STE      -0.0516
      7 C5         -0.9646    2.2007   19.2315 C.3         1 STE      -0.0530
      8 C6          0.2636    3.1014   18.9234 C.3         1 STE      -0.0531
      9 C7          0.0785    4.6180   19.2467 C.3         1 STE      -0.0531
     10 C8          0.2650    5.0399   20.7372 C.3         1 STE      -0.0531
     11 C9         -1.0073    5.1698   21.6230 C.3         1 STE      -0.0531
     12 C10        -1.9693    6.3206   21.2121 C.3         1 STE      -0.0531
     13 C11        -3.1878    6.4637   22.1651 C.3         1 STE      -0.0531
     14 C12        -4.1363    7.6614   21.8711 C.3         1 STE      -0.0531
     15 C13        -5.1748    7.4437   20.7279 C.3         1 STE      -0.0531
     16 C14        -4.7358    8.0211   19.3540 C.3         1 STE      -0.0531
     17 C15        -5.4392    7.3752   18.1343 C.3         1 STE      -0.0531
     18 C16        -6.9134    7.7857   17.8754 C.3         1 STE      -0.0533
     19 C17        -7.2866    9.2185   18.3458 C.3         1 STE      -0.0559
     20 C18        -8.6987    9.6584   17.8991 C.3         1 STE      -0.0653
     21 H1         -1.4121   -0.2475   21.5351 H           1 STE       0.0430
     22 H2          0.1303   -0.8995   22.0742 H           1 STE       0.0430
     23 H3          0.2852   -1.0769   19.7650 H           1 STE       0.0283
     24 H4          1.2091    0.3864   20.0659 H           1 STE       0.0283
     25 H5         -1.6819    0.1750   19.0403 H           1 STE       0.0266
     26 H6         -0.2682    0.5315   18.0531 H           1 STE       0.0266
     27 H7         -1.3179    2.3651   20.2460 H           1 STE       0.0265
     28 H8         -1.7790    2.4941   18.5600 H           1 STE       0.0265
     29 H9          0.4702    3.0135   17.8526 H           1 STE       0.0265
     30 H10         1.1430    2.7313   19.4553 H           1 STE       0.0265
     31 H11        -0.8850    4.9593   18.8670 H           1 STE       0.0265
     32 H12         0.8408    5.1502   18.6691 H           1 STE       0.0265
     33 H13         0.7677    6.0122   20.7515 H           1 STE       0.0265
     34 H14         0.9504    4.3361   21.2188 H           1 STE       0.0265
     35 H15        -0.6739    5.3538   22.6451 H           1 STE       0.0265
     36 H16        -1.5595    4.2323   21.6333 H           1 STE       0.0265
     37 H17        -2.3281    6.1275   20.1976 H           1 STE       0.0265
     38 H18        -1.4119    7.2609   21.2164 H           1 STE       0.0265
     39 H19        -2.8115    6.5921   23.1834 H           1 STE       0.0265
     40 H20        -3.7704    5.5376   22.1505 H           1 STE       0.0265
     41 H21        -3.5400    8.5591   21.6752 H           1 STE       0.0265
     42 H22        -4.6921    7.8557   22.7921 H           1 STE       0.0265
     43 H23        -6.1064    7.9344   21.0156 H           1 STE       0.0265
     44 H24        -5.3911    6.3771   20.6324 H           1 STE       0.0265
     45 H25        -3.6624    7.8763   19.2161 H           1 STE       0.0265
     46 H26        -4.9080    9.1010   19.3467 H           1 STE       0.0265
     47 H27        -5.4011    6.2890   18.2422 H           1 STE       0.0265
     48 H28        -4.8562    7.6213   17.2458 H           1 STE       0.0265
     49 H29        -7.5809    7.0662   18.3613 H           1 STE       0.0265
     50 H30        -7.0825    7.7080   16.7993 H           1 STE       0.0265
     51 H31        -6.5612    9.9373   17.9604 H           1 STE       0.0263
     52 H32        -7.2494    9.2500   19.4363 H           1 STE       0.0263
     53 H33        -8.9610   10.6084   18.3731 H           1 STE       0.0230
     54 H34        -9.4464    8.9120   18.1757 H           1 STE       0.0230
     55 H35        -8.7191    9.8028   16.8166 H           1 STE       0.0230
@<TRIPOS>BOND
     1     1     2  ar
     2     1     3  ar
     3     1     4   1
     4     4     5   1
     5     5     6   1
     6     6     7   1
     7     7     8   1
     8     8     9   1
     9     9    10   1
    10    10    11   1
    11    11    12   1
    12    12    13   1
    13    13    14   1
    14    14    15   1
    15    15    16   1
    16    16    17   1
    17    17    18   1
    18    18    19   1
    19    19    20   1
    20     4    21   1
    21     4    22   1
    22     5    23   1
    23     5    24   1
    24     6    25   1
    25     6    26   1
    26     7    27   1
    27     7    28   1
    28     8    29   1
    29     8    30   1
    30     9    31   1
    31     9    32   1
    32    10    33   1
    33    10    34   1
    34    11    35   1
    35    11    36   1
    36    12    37   1
    37    12    38   1
    38    13    39   1
    39    13    40   1
    40    14    41   1
    41    14    42   1
    42    15    43   1
    43    15    44   1
    44    16    45   1
    45    16    46   1
    46    17    47   1
    47    17    48   1
    48    18    49   1
    49    18    50   1
    50    19    51   1
    51    19    52   1
    52    20    53   1
    53    20    54   1
    54    20    55   1
@<TRIPOS>SUBSTRUCTURE
     1  STE      1

