@<TRIPOS>MOLECULE
3uex_ligand_062
    55    54
SMALL
GAST_HUCK
****
This file was generated by PARSER (from files_GN.cpp)

@<TRIPOS>ATOM
      1 C1         -3.8146   -0.0279   14.0755 C.2         1 STE       0.0348
      2 O1         -5.1613    0.0475   14.0005 O.co2       1 STE      -0.5690
      3 O2         -3.2558   -1.1626   14.5538 O.co2       1 STE      -0.5690
      4 C2         -2.9771    1.0724   13.5688 C.3         1 STE       0.0002
      5 C3         -2.4780    1.9966   14.7085 C.3         1 STE      -0.0414
      6 C4         -1.4935    3.0778   14.1879 C.3         1 STE      -0.0516
      7 C5         -0.8672    3.9653   15.2954 C.3         1 STE      -0.0530
      8 C6         -0.1433    3.1699   16.4190 C.3         1 STE      -0.0531
      9 C7          0.6381    4.0677   17.4163 C.3         1 STE      -0.0531
     10 C8         -0.1739    4.4878   18.6725 C.3         1 STE      -0.0531
     11 C9          0.4462    5.6779   19.4602 C.3         1 STE      -0.0531
     12 C10         0.2555    5.6048   20.9997 C.3         1 STE      -0.0531
     13 C11        -1.1942    5.4085   21.5151 C.3         1 STE      -0.0531
     14 C12        -2.2325    6.4704   21.0609 C.3         1 STE      -0.0531
     15 C13        -3.6966    6.0775   21.4269 C.3         1 STE      -0.0531
     16 C14        -4.2537    4.8437   20.6530 C.3         1 STE      -0.0531
     17 C15        -4.6329    3.6030   21.5231 C.3         1 STE      -0.0531
     18 C16        -3.5724    2.4623   21.5745 C.3         1 STE      -0.0533
     19 C17        -2.6713    2.4542   22.8375 C.3         1 STE      -0.0559
     20 C18        -1.4368    1.5345   22.6937 C.3         1 STE      -0.0653
     21 H1         -3.5580    1.6631   12.8544 H           1 STE       0.0430
     22 H2         -2.1201    0.6511   13.0345 H           1 STE       0.0430
     23 H3         -1.9824    1.3862   15.4694 H           1 STE       0.0283
     24 H4         -3.3397    2.4895   15.1714 H           1 STE       0.0283
     25 H5         -2.0360    3.7326   13.4999 H           1 STE       0.0266
     26 H6         -0.6952    2.5957   13.6193 H           1 STE       0.0266
     27 H7         -1.6427    4.6014   15.7290 H           1 STE       0.0265
     28 H8         -0.1390    4.6185   14.8085 H           1 STE       0.0265
     29 H9          0.5661    2.4856   15.9463 H           1 STE       0.0265
     30 H10        -0.8679    2.5674   16.9675 H           1 STE       0.0265
     31 H11         1.0138    4.9507   16.8928 H           1 STE       0.0265
     32 H12         1.5126    3.5090   17.7563 H           1 STE       0.0265
     33 H13        -0.2454    3.6136   19.3242 H           1 STE       0.0265
     34 H14        -1.1873    4.7651   18.3776 H           1 STE       0.0265
     35 H15         0.0162    6.6124   19.0892 H           1 STE       0.0265
     36 H16         1.5220    5.7214   19.2714 H           1 STE       0.0265
     37 H17         0.6653    6.5121   21.4499 H           1 STE       0.0265
     38 H18         0.8537    4.7645   21.3667 H           1 STE       0.0265
     39 H19        -1.1550    5.4328   22.6096 H           1 STE       0.0265
     40 H20        -1.5369    4.4205   21.2192 H           1 STE       0.0265
     41 H21        -2.1618    6.6343   19.9774 H           1 STE       0.0265
     42 H22        -1.9999    7.4196   21.5491 H           1 STE       0.0265
     43 H23        -4.3482    6.9321   21.2072 H           1 STE       0.0265
     44 H24        -3.7607    5.8951   22.4980 H           1 STE       0.0265
     45 H25        -3.5512    4.5308   19.8750 H           1 STE       0.0265
     46 H26        -5.1541    5.1709   20.1249 H           1 STE       0.0265
     47 H27        -5.5393    3.1597   21.0980 H           1 STE       0.0265
     48 H28        -4.8836    3.9181   22.5356 H           1 STE       0.0265
     49 H29        -2.9528    2.5166   20.6744 H           1 STE       0.0265
     50 H30        -4.0969    1.5034   21.5377 H           1 STE       0.0265
     51 H31        -3.2590    2.1143   23.6959 H           1 STE       0.0263
     52 H32        -2.3158    3.4611   23.0544 H           1 STE       0.0263
     53 H33        -0.8475    1.5556   23.6103 H           1 STE       0.0230
     54 H34        -0.8044    1.8740   21.8701 H           1 STE       0.0230
     55 H35        -1.7464    0.5056   22.4989 H           1 STE       0.0230
@<TRIPOS>BOND
     1     1     2  ar
     2     1     3  ar
     3     1     4   1
     4     4     5   1
     5     5     6   1
     6     6     7   1
     7     7     8   1
     8     8     9   1
     9     9    10   1
    10    10    11   1
    11    11    12   1
    12    12    13   1
    13    13    14   1
    14    14    15   1
    15    15    16   1
    16    16    17   1
    17    17    18   1
    18    18    19   1
    19    19    20   1
    20     4    21   1
    21     4    22   1
    22     5    23   1
    23     5    24   1
    24     6    25   1
    25     6    26   1
    26     7    27   1
    27     7    28   1
    28     8    29   1
    29     8    30   1
    30     9    31   1
    31     9    32   1
    32    10    33   1
    33    10    34   1
    34    11    35   1
    35    11    36   1
    36    12    37   1
    37    12    38   1
    38    13    39   1
    39    13    40   1
    40    14    41   1
    41    14    42   1
    42    15    43   1
    43    15    44   1
    44    16    45   1
    45    16    46   1
    46    17    47   1
    47    17    48   1
    48    18    49   1
    49    18    50   1
    50    19    51   1
    51    19    52   1
    52    20    53   1
    53    20    54   1
    54    20    55   1
@<TRIPOS>SUBSTRUCTURE
     1  STE      1

