@<TRIPOS>MOLECULE
3uex_ligand_040
    55    54
SMALL
GAST_HUCK
****
This file was generated by PARSER (from files_GN.cpp)

@<TRIPOS>ATOM
      1 C1         -3.9729   -0.3615   13.3866 C.2         1 STE       0.0348
      2 O1         -5.1862   -0.0703   13.9422 O.co2       1 STE      -0.5690
      3 O2         -3.2554   -1.4113   13.8264 O.co2       1 STE      -0.5690
      4 C2         -3.4390    0.5390   12.3599 C.3         1 STE       0.0002
      5 C3         -2.6044    1.7207   12.9263 C.3         1 STE      -0.0414
      6 C4         -2.7670    1.9971   14.4542 C.3         1 STE      -0.0516
      7 C5         -2.1564    3.3585   14.8754 C.3         1 STE      -0.0530
      8 C6         -2.4692    3.7759   16.3357 C.3         1 STE      -0.0531
      9 C7         -3.6281    4.7928   16.4428 C.3         1 STE      -0.0531
     10 C8         -3.9289    5.2928   17.8778 C.3         1 STE      -0.0531
     11 C9         -5.1884    6.1853   17.9087 C.3         1 STE      -0.0531
     12 C10        -5.5272    6.7876   19.3145 C.3         1 STE      -0.0531
     13 C11        -7.0449    6.7906   19.6010 C.3         1 STE      -0.0531
     14 C12        -7.5559    7.9954   20.4430 C.3         1 STE      -0.0531
     15 C13        -9.0804    7.8335   20.7492 C.3         1 STE      -0.0531
     16 C14        -9.4946    8.1199   22.2270 C.3         1 STE      -0.0531
     17 C15       -11.0216    7.8076   22.4693 C.3         1 STE      -0.0531
     18 C16       -11.2697    6.4460   23.1847 C.3         1 STE      -0.0533
     19 C17       -10.3668    5.2593   22.7349 C.3         1 STE      -0.0559
     20 C18       -11.0169    4.3529   21.6302 C.3         1 STE      -0.0653
     21 H1         -4.2641    0.9346   11.7650 H           1 STE       0.0430
     22 H2         -2.8184   -0.0526   11.6869 H           1 STE       0.0430
     23 H3         -2.8808    2.6285   12.3833 H           1 STE       0.0283
     24 H4         -1.5440    1.5209   12.7243 H           1 STE       0.0283
     25 H5         -2.2388    1.1944   15.0182 H           1 STE       0.0266
     26 H6         -3.8313    1.9352   14.7235 H           1 STE       0.0266
     27 H7         -2.4938    4.1498   14.1921 H           1 STE       0.0265
     28 H8         -1.0747    3.2774   14.7894 H           1 STE       0.0265
     29 H9         -1.5744    4.2391   16.7602 H           1 STE       0.0265
     30 H10        -2.6864    2.8869   16.9349 H           1 STE       0.0265
     31 H11        -4.5456    4.3368   16.0423 H           1 STE       0.0265
     32 H12        -3.3939    5.6645   15.8146 H           1 STE       0.0265
     33 H13        -3.0639    5.8463   18.2705 H           1 STE       0.0265
     34 H14        -4.1024    4.4145   18.5226 H           1 STE       0.0265
     35 H15        -6.0352    5.5918   17.5358 H           1 STE       0.0265
     36 H16        -5.0511    7.0230   17.2093 H           1 STE       0.0265
     37 H17        -5.1450    7.8157   19.3463 H           1 STE       0.0265
     38 H18        -5.0229    6.2247   20.1045 H           1 STE       0.0265
     39 H19        -7.2668    5.8529   20.1301 H           1 STE       0.0265
     40 H20        -7.6018    6.7792   18.6474 H           1 STE       0.0265
     41 H21        -7.3784    8.9220   19.8597 H           1 STE       0.0265
     42 H22        -6.9668    8.0591   21.3665 H           1 STE       0.0265
     43 H23        -9.3669    6.8010   20.4927 H           1 STE       0.0265
     44 H24        -9.6359    8.5134   20.0661 H           1 STE       0.0265
     45 H25        -9.3012    9.1813   22.4598 H           1 STE       0.0265
     46 H26        -8.8867    7.4621   22.8801 H           1 STE       0.0265
     47 H27       -11.6139    7.8217   21.5411 H           1 STE       0.0265
     48 H28       -11.4530    8.6027   23.0840 H           1 STE       0.0265
     49 H29       -12.3281    6.1832   23.0874 H           1 STE       0.0265
     50 H30       -11.1039    6.5975   24.2581 H           1 STE       0.0265
     51 H31       -10.2068    4.6280   23.6069 H           1 STE       0.0263
     52 H32        -9.4095    5.6635   22.3717 H           1 STE       0.0263
     53 H33       -10.3038    3.5496   21.3757 H           1 STE       0.0230
     54 H34       -11.2588    4.8985   20.7008 H           1 STE       0.0230
     55 H35       -11.9407    3.8790   22.0067 H           1 STE       0.0230
@<TRIPOS>BOND
     1     1     2  ar
     2     1     3  ar
     3     1     4   1
     4     4     5   1
     5     5     6   1
     6     6     7   1
     7     7     8   1
     8     8     9   1
     9     9    10   1
    10    10    11   1
    11    11    12   1
    12    12    13   1
    13    13    14   1
    14    14    15   1
    15    15    16   1
    16    16    17   1
    17    17    18   1
    18    18    19   1
    19    19    20   1
    20     4    21   1
    21     4    22   1
    22     5    23   1
    23     5    24   1
    24     6    25   1
    25     6    26   1
    26     7    27   1
    27     7    28   1
    28     8    29   1
    29     8    30   1
    30     9    31   1
    31     9    32   1
    32    10    33   1
    33    10    34   1
    34    11    35   1
    35    11    36   1
    36    12    37   1
    37    12    38   1
    38    13    39   1
    39    13    40   1
    40    14    41   1
    41    14    42   1
    42    15    43   1
    43    15    44   1
    44    16    45   1
    45    16    46   1
    46    17    47   1
    47    17    48   1
    48    18    49   1
    49    18    50   1
    50    19    51   1
    51    19    52   1
    52    20    53   1
    53    20    54   1
    54    20    55   1
@<TRIPOS>SUBSTRUCTURE
     1  STE      1

