@<TRIPOS>MOLECULE
3uex_ligand_023
    55    54
SMALL
GAST_HUCK
****
This file was generated by PARSER (from files_GN.cpp)

@<TRIPOS>ATOM
      1 C1         -4.5532    0.1966   15.2402 C.2         1 STE       0.0348
      2 O1         -5.1509    0.0294   14.0276 O.co2       1 STE      -0.5690
      3 O2         -3.7345   -0.7709   15.7122 O.co2       1 STE      -0.5690
      4 C2         -4.6496    1.5182   15.9054 C.3         1 STE       0.0002
      5 C3         -6.1195    1.9587   16.1968 C.3         1 STE      -0.0414
      6 C4         -6.3963    3.4688   15.9540 C.3         1 STE      -0.0516
      7 C5         -7.5231    4.0211   16.8709 C.3         1 STE      -0.0530
      8 C6         -7.0038    4.6671   18.1805 C.3         1 STE      -0.0531
      9 C7         -6.6104    6.1764   18.0548 C.3         1 STE      -0.0531
     10 C8         -5.1927    6.5665   18.5478 C.3         1 STE      -0.0531
     11 C9         -4.9957    6.5129   20.0910 C.3         1 STE      -0.0531
     12 C10        -3.6449    7.0741   20.6232 C.3         1 STE      -0.0531
     13 C11        -2.4090    6.7815   19.7184 C.3         1 STE      -0.0531
     14 C12        -1.0329    7.0115   20.4094 C.3         1 STE      -0.0531
     15 C13        -0.5093    5.8265   21.2762 C.3         1 STE      -0.0531
     16 C14        -0.3566    4.4489   20.5700 C.3         1 STE      -0.0531
     17 C15         0.1351    4.5205   19.1005 C.3         1 STE      -0.0531
     18 C16         0.6588    3.1838   18.5131 C.3         1 STE      -0.0533
     19 C17        -0.4367    2.2728   17.8808 C.3         1 STE      -0.0559
     20 C18         0.1396    1.1749   16.9559 C.3         1 STE      -0.0653
     21 H1         -4.1315    2.2388   15.2621 H           1 STE       0.0430
     22 H2         -4.0910    1.4741   16.8556 H           1 STE       0.0430
     23 H3         -6.3305    1.6973   17.2400 H           1 STE       0.0283
     24 H4         -6.8072    1.3812   15.5684 H           1 STE       0.0283
     25 H5         -6.6907    3.5733   14.9068 H           1 STE       0.0266
     26 H6         -5.4712    4.0310   16.0932 H           1 STE       0.0266
     27 H7         -8.2158    3.2144   17.1152 H           1 STE       0.0265
     28 H8         -8.0951    4.7542   16.3086 H           1 STE       0.0265
     29 H9         -6.1634    4.0722   18.5376 H           1 STE       0.0265
     30 H10        -7.7854    4.5762   18.9341 H           1 STE       0.0265
     31 H11        -7.3411    6.7835   18.5995 H           1 STE       0.0265
     32 H12        -6.6742    6.4928   17.0090 H           1 STE       0.0265
     33 H13        -4.9735    7.5806   18.2010 H           1 STE       0.0265
     34 H14        -4.4682    5.8903   18.0764 H           1 STE       0.0265
     35 H15        -5.0742    5.4777   20.4287 H           1 STE       0.0265
     36 H16        -5.7978    7.0783   20.5676 H           1 STE       0.0265
     37 H17        -3.4729    6.6400   21.6167 H           1 STE       0.0265
     38 H18        -3.7285    8.1572   20.7451 H           1 STE       0.0265
     39 H19        -2.4602    7.4426   18.8460 H           1 STE       0.0265
     40 H20        -2.4577    5.7506   19.3425 H           1 STE       0.0265
     41 H21        -1.0821    7.9060   21.0391 H           1 STE       0.0265
     42 H22        -0.2807    7.2256   19.6413 H           1 STE       0.0265
     43 H23        -1.1716    5.6954   22.1404 H           1 STE       0.0265
     44 H24         0.4743    6.1090   21.6730 H           1 STE       0.0265
     45 H25        -1.3207    3.9240   20.6025 H           1 STE       0.0265
     46 H26         0.3490    3.8405   21.1460 H           1 STE       0.0265
     47 H27         0.9345    5.2688   19.0349 H           1 STE       0.0265
     48 H28        -0.6844    4.8558   18.4537 H           1 STE       0.0265
     49 H29         1.1735    2.6177   19.2981 H           1 STE       0.0265
     50 H30         1.4064    3.4346   17.7532 H           1 STE       0.0265
     51 H31        -1.1382    2.8709   17.2890 H           1 STE       0.0263
     52 H32        -1.0057    1.7852   18.6798 H           1 STE       0.0263
     53 H33        -0.6576    0.5147   16.6070 H           1 STE       0.0230
     54 H34         0.8820    0.5749   17.4891 H           1 STE       0.0230
     55 H35         0.6183    1.6349   16.0844 H           1 STE       0.0230
@<TRIPOS>BOND
     1     1     2  ar
     2     1     3  ar
     3     1     4   1
     4     4     5   1
     5     5     6   1
     6     6     7   1
     7     7     8   1
     8     8     9   1
     9     9    10   1
    10    10    11   1
    11    11    12   1
    12    12    13   1
    13    13    14   1
    14    14    15   1
    15    15    16   1
    16    16    17   1
    17    17    18   1
    18    18    19   1
    19    19    20   1
    20     4    21   1
    21     4    22   1
    22     5    23   1
    23     5    24   1
    24     6    25   1
    25     6    26   1
    26     7    27   1
    27     7    28   1
    28     8    29   1
    29     8    30   1
    30     9    31   1
    31     9    32   1
    32    10    33   1
    33    10    34   1
    34    11    35   1
    35    11    36   1
    36    12    37   1
    37    12    38   1
    38    13    39   1
    39    13    40   1
    40    14    41   1
    41    14    42   1
    42    15    43   1
    43    15    44   1
    44    16    45   1
    45    16    46   1
    46    17    47   1
    47    17    48   1
    48    18    49   1
    49    18    50   1
    50    19    51   1
    51    19    52   1
    52    20    53   1
    53    20    54   1
    54    20    55   1
@<TRIPOS>SUBSTRUCTURE
     1  STE      1

