@<TRIPOS>MOLECULE
3uex_ligand_051
    55    54
SMALL
GAST_HUCK
****
This file was generated by PARSER (from files_GN.cpp)

@<TRIPOS>ATOM
      1 C1         -3.8247   -0.0936   13.8986 C.2         1 STE       0.0348
      2 O1         -5.1558    0.0816   14.0450 O.co2       1 STE      -0.5690
      3 O2         -3.2665   -1.1678   14.5034 O.co2       1 STE      -0.5690
      4 C2         -2.9725    1.0507   13.5325 C.3         1 STE       0.0002
      5 C3         -2.6015    1.9155   14.7636 C.3         1 STE      -0.0414
      6 C4         -1.5595    3.0132   14.4267 C.3         1 STE      -0.0516
      7 C5         -0.9925    3.7429   15.6755 C.3         1 STE      -0.0530
      8 C6         -0.0918    2.8631   16.5915 C.3         1 STE      -0.0531
      9 C7          0.5990    3.6334   17.7533 C.3         1 STE      -0.0531
     10 C8         -0.3398    3.9795   18.9425 C.3         1 STE      -0.0531
     11 C9          0.2331    5.0480   19.9188 C.3         1 STE      -0.0531
     12 C10        -0.8128    6.0518   20.4997 C.3         1 STE      -0.0531
     13 C11        -1.7147    5.5442   21.6623 C.3         1 STE      -0.0531
     14 C12        -2.7426    4.4120   21.3608 C.3         1 STE      -0.0531
     15 C13        -4.2406    4.8279   21.3404 C.3         1 STE      -0.0531
     16 C14        -4.7933    5.4630   20.0341 C.3         1 STE      -0.0531
     17 C15        -4.6720    4.5533   18.7790 C.3         1 STE      -0.0531
     18 C16        -5.5722    4.9424   17.5768 C.3         1 STE      -0.0533
     19 C17        -7.0687    4.5219   17.6641 C.3         1 STE      -0.0559
     20 C18        -7.3193    3.0128   17.9047 C.3         1 STE      -0.0653
     21 H1         -3.4951    1.6635   12.7956 H           1 STE       0.0430
     22 H2         -2.0663    0.6636   13.0642 H           1 STE       0.0430
     23 H3         -2.1937    1.2633   15.5378 H           1 STE       0.0283
     24 H4         -3.5080    2.3876   15.1561 H           1 STE       0.0283
     25 H5         -2.0375    3.7583   13.7848 H           1 STE       0.0266
     26 H6         -0.7337    2.5746   13.8642 H           1 STE       0.0266
     27 H7         -1.8326    4.1411   16.2481 H           1 STE       0.0265
     28 H8         -0.4015    4.5938   15.3254 H           1 STE       0.0265
     29 H9          0.6968    2.4202   15.9780 H           1 STE       0.0265
     30 H10        -0.6779    2.0474   17.0211 H           1 STE       0.0265
     31 H11         1.0349    4.5508   17.3462 H           1 STE       0.0265
     32 H12         1.4193    3.0197   18.1414 H           1 STE       0.0265
     33 H13        -0.5354    3.0592   19.4964 H           1 STE       0.0265
     34 H14        -1.2876    4.3421   18.5434 H           1 STE       0.0265
     35 H15         0.9762    5.6431   19.3758 H           1 STE       0.0265
     36 H16         0.7641    4.5481   20.7342 H           1 STE       0.0265
     37 H17        -1.4374    6.4569   19.7008 H           1 STE       0.0265
     38 H18        -0.2456    6.8990   20.9028 H           1 STE       0.0265
     39 H19        -2.2641    6.4053   22.0509 H           1 STE       0.0265
     40 H20        -1.0534    5.2133   22.4644 H           1 STE       0.0265
     41 H21        -2.6413    3.6617   22.1521 H           1 STE       0.0265
     42 H22        -2.5018    3.8998   20.4320 H           1 STE       0.0265
     43 H23        -4.4215    5.5240   22.1651 H           1 STE       0.0265
     44 H24        -4.8396    3.9392   21.5511 H           1 STE       0.0265
     45 H25        -4.2815    6.4082   19.8445 H           1 STE       0.0265
     46 H26        -5.8417    5.7029   20.2153 H           1 STE       0.0265
     47 H27        -4.8708    3.5126   19.0431 H           1 STE       0.0265
     48 H28        -3.6409    4.5983   18.4367 H           1 STE       0.0265
     49 H29        -5.1461    4.4883   16.6756 H           1 STE       0.0265
     50 H30        -5.5235    6.0276   17.4400 H           1 STE       0.0265
     51 H31        -7.5411    4.7940   16.7142 H           1 STE       0.0263
     52 H32        -7.5717    5.0952   18.4494 H           1 STE       0.0263
     53 H33        -8.3753    2.7809   17.7296 H           1 STE       0.0230
     54 H34        -7.0703    2.7495   18.9369 H           1 STE       0.0230
     55 H35        -6.7124    2.4099   17.2239 H           1 STE       0.0230
@<TRIPOS>BOND
     1     1     2  ar
     2     1     3  ar
     3     1     4   1
     4     4     5   1
     5     5     6   1
     6     6     7   1
     7     7     8   1
     8     8     9   1
     9     9    10   1
    10    10    11   1
    11    11    12   1
    12    12    13   1
    13    13    14   1
    14    14    15   1
    15    15    16   1
    16    16    17   1
    17    17    18   1
    18    18    19   1
    19    19    20   1
    20     4    21   1
    21     4    22   1
    22     5    23   1
    23     5    24   1
    24     6    25   1
    25     6    26   1
    26     7    27   1
    27     7    28   1
    28     8    29   1
    29     8    30   1
    30     9    31   1
    31     9    32   1
    32    10    33   1
    33    10    34   1
    34    11    35   1
    35    11    36   1
    36    12    37   1
    37    12    38   1
    38    13    39   1
    39    13    40   1
    40    14    41   1
    41    14    42   1
    42    15    43   1
    43    15    44   1
    44    16    45   1
    45    16    46   1
    46    17    47   1
    47    17    48   1
    48    18    49   1
    49    18    50   1
    50    19    51   1
    51    19    52   1
    52    20    53   1
    53    20    54   1
    54    20    55   1
@<TRIPOS>SUBSTRUCTURE
     1  STE      1

