@<TRIPOS>MOLECULE
3uex_ligand_076
    55    54
SMALL
GAST_HUCK
****
This file was generated by PARSER (from files_GN.cpp)

@<TRIPOS>ATOM
      1 C1         -4.0895   -1.3779   11.1853 C.2         1 STE       0.0348
      2 O1         -2.8591   -0.9859   10.7831 O.co2       1 STE      -0.5690
      3 O2         -4.5834   -2.5431   10.7168 O.co2       1 STE      -0.5690
      4 C2         -4.8341   -0.6099   12.1953 C.3         1 STE       0.0002
      5 C3         -4.7622   -1.2432   13.6189 C.3         1 STE      -0.0414
      6 C4         -3.7233   -0.6008   14.5864 C.3         1 STE      -0.0516
      7 C5         -4.1419    0.8048   15.1075 C.3         1 STE      -0.0530
      8 C6         -3.3091    1.3464   16.3142 C.3         1 STE      -0.0531
      9 C7         -2.3592    2.5352   15.9819 C.3         1 STE      -0.0531
     10 C8         -1.8194    3.2779   17.2399 C.3         1 STE      -0.0531
     11 C9         -2.8526    4.2617   17.8657 C.3         1 STE      -0.0531
     12 C10        -2.4034    4.8955   19.2097 C.3         1 STE      -0.0531
     13 C11        -3.5650    5.4506   20.0889 C.3         1 STE      -0.0531
     14 C12        -4.2530    6.7566   19.5930 C.3         1 STE      -0.0531
     15 C13        -5.4197    6.6129   18.5684 C.3         1 STE      -0.0531
     16 C14        -6.8432    6.3142   19.1455 C.3         1 STE      -0.0531
     17 C15        -7.2768    4.8317   19.3248 C.3         1 STE      -0.0531
     18 C16        -7.2676    3.9760   18.0280 C.3         1 STE      -0.0533
     19 C17        -7.8911    2.5635   18.2206 C.3         1 STE      -0.0559
     20 C18        -7.2787    1.5037   17.2784 C.3         1 STE      -0.0653
     21 H1         -5.8762   -0.5627   11.8759 H           1 STE       0.0430
     22 H2         -4.4636    0.4146   12.2077 H           1 STE       0.0430
     23 H3         -4.5407   -2.3136   13.5485 H           1 STE       0.0283
     24 H4         -5.7490   -1.1767   14.0864 H           1 STE       0.0283
     25 H5         -2.7464   -0.5350   14.0989 H           1 STE       0.0266
     26 H6         -3.6205   -1.2699   15.4476 H           1 STE       0.0266
     27 H7         -5.1857    0.7352   15.4191 H           1 STE       0.0265
     28 H8         -4.1141    1.5163   14.2811 H           1 STE       0.0265
     29 H9         -2.7205    0.5452   16.7712 H           1 STE       0.0265
     30 H10        -4.0104    1.6751   17.0802 H           1 STE       0.0265
     31 H11        -2.8749    3.2601   15.3494 H           1 STE       0.0265
     32 H12        -1.5144    2.1408   15.4123 H           1 STE       0.0265
     33 H13        -0.9329    3.8522   16.9565 H           1 STE       0.0265
     34 H14        -1.5122    2.5385   17.9856 H           1 STE       0.0265
     35 H15        -3.7855    3.7268   18.0348 H           1 STE       0.0265
     36 H16        -3.0435    5.0606   17.1447 H           1 STE       0.0265
     37 H17        -1.6804    5.6873   19.0101 H           1 STE       0.0265
     38 H18        -1.8932    4.1320   19.8000 H           1 STE       0.0265
     39 H19        -3.1321    5.6693   21.0696 H           1 STE       0.0265
     40 H20        -4.3080    4.6692   20.2523 H           1 STE       0.0265
     41 H21        -3.4853    7.3965   19.1526 H           1 STE       0.0265
     42 H22        -4.6324    7.2971   20.4627 H           1 STE       0.0265
     43 H23        -5.1615    5.8925   17.7980 H           1 STE       0.0265
     44 H24        -5.4938    7.5760   18.0533 H           1 STE       0.0265
     45 H25        -7.5769    6.7811   18.4845 H           1 STE       0.0265
     46 H26        -6.9491    6.8115   20.1119 H           1 STE       0.0265
     47 H27        -8.2970    4.8343   19.7201 H           1 STE       0.0265
     48 H28        -6.6443    4.3552   20.0736 H           1 STE       0.0265
     49 H29        -6.2350    3.8631   17.6962 H           1 STE       0.0265
     50 H30        -7.8154    4.4970   17.2391 H           1 STE       0.0265
     51 H31        -8.9680    2.6143   18.0362 H           1 STE       0.0263
     52 H32        -7.7426    2.2144   19.2459 H           1 STE       0.0263
     53 H33        -7.8227    0.5609   17.3614 H           1 STE       0.0230
     54 H34        -6.2417    1.3240   17.5672 H           1 STE       0.0230
     55 H35        -7.3111    1.8433   16.2401 H           1 STE       0.0230
@<TRIPOS>BOND
     1     1     2  ar
     2     1     3  ar
     3     1     4   1
     4     4     5   1
     5     5     6   1
     6     6     7   1
     7     7     8   1
     8     8     9   1
     9     9    10   1
    10    10    11   1
    11    11    12   1
    12    12    13   1
    13    13    14   1
    14    14    15   1
    15    15    16   1
    16    16    17   1
    17    17    18   1
    18    18    19   1
    19    19    20   1
    20     4    21   1
    21     4    22   1
    22     5    23   1
    23     5    24   1
    24     6    25   1
    25     6    26   1
    26     7    27   1
    27     7    28   1
    28     8    29   1
    29     8    30   1
    30     9    31   1
    31     9    32   1
    32    10    33   1
    33    10    34   1
    34    11    35   1
    35    11    36   1
    36    12    37   1
    37    12    38   1
    38    13    39   1
    39    13    40   1
    40    14    41   1
    41    14    42   1
    42    15    43   1
    43    15    44   1
    44    16    45   1
    45    16    46   1
    46    17    47   1
    47    17    48   1
    48    18    49   1
    49    18    50   1
    50    19    51   1
    51    19    52   1
    52    20    53   1
    53    20    54   1
    54    20    55   1
@<TRIPOS>SUBSTRUCTURE
     1  STE      1

