@<TRIPOS>MOLECULE
3uex_ligand_071
    55    54
SMALL
GAST_HUCK
****
This file was generated by PARSER (from files_GN.cpp)

@<TRIPOS>ATOM
      1 C1        -10.9170    2.2300   23.7238 C.2         1 STE       0.0348
      2 O1        -11.1208    2.5691   25.0235 O.co2       1 STE      -0.5690
      3 O2        -10.3334    1.0425   23.4471 O.co2       1 STE      -0.5690
      4 C2        -11.4810    3.0920   22.6640 C.3         1 STE       0.0002
      5 C3        -10.7712    4.4764   22.6053 C.3         1 STE      -0.0414
      6 C4        -11.6541    5.6403   22.0558 C.3         1 STE      -0.0516
      7 C5        -11.1961    7.0725   22.4899 C.3         1 STE      -0.0530
      8 C6        -10.0287    7.7414   21.6968 C.3         1 STE      -0.0531
      9 C7         -8.8686    6.7756   21.3224 C.3         1 STE      -0.0531
     10 C8         -7.6125    7.4594   20.7136 C.3         1 STE      -0.0531
     11 C9         -7.6519    7.6371   19.1658 C.3         1 STE      -0.0531
     12 C10        -6.4384    8.4205   18.5661 C.3         1 STE      -0.0531
     13 C11        -5.1274    7.6162   18.2683 C.3         1 STE      -0.0531
     14 C12        -4.6811    6.6374   19.3871 C.3         1 STE      -0.0531
     15 C13        -3.2781    5.9825   19.2143 C.3         1 STE      -0.0531
     16 C14        -3.0784    4.6567   20.0142 C.3         1 STE      -0.0531
     17 C15        -3.4930    4.6801   21.5262 C.3         1 STE      -0.0531
     18 C16        -4.6221    3.6747   21.9238 C.3         1 STE      -0.0533
     19 C17        -4.1331    2.3782   22.6302 C.3         1 STE      -0.0559
     20 C18        -3.7285    1.2397   21.6681 C.3         1 STE      -0.0653
     21 H1        -12.5460    3.2217   22.8843 H           1 STE       0.0430
     22 H2        -11.3902    2.5880   21.6933 H           1 STE       0.0430
     23 H3         -9.8775    4.3769   21.9867 H           1 STE       0.0283
     24 H4        -10.4424    4.7489   23.6137 H           1 STE       0.0283
     25 H5        -12.6716    5.5055   22.4456 H           1 STE       0.0266
     26 H6        -11.7125    5.5850   20.9661 H           1 STE       0.0266
     27 H7        -10.9279    7.0680   23.5501 H           1 STE       0.0265
     28 H8        -12.0558    7.7508   22.3935 H           1 STE       0.0265
     29 H9         -9.6115    8.5298   22.3422 H           1 STE       0.0265
     30 H10       -10.4189    8.2249   20.7914 H           1 STE       0.0265
     31 H11        -9.2267    6.0041   20.6325 H           1 STE       0.0265
     32 H12        -8.5564    6.2748   22.2436 H           1 STE       0.0265
     33 H13        -6.7596    6.8319   20.9653 H           1 STE       0.0265
     34 H14        -7.4613    8.4356   21.1832 H           1 STE       0.0265
     35 H15        -8.5660    8.1886   18.9178 H           1 STE       0.0265
     36 H16        -7.7149    6.6637   18.6753 H           1 STE       0.0265
     37 H17        -6.1947    9.2698   19.2174 H           1 STE       0.0265
     38 H18        -6.7625    8.8461   17.6031 H           1 STE       0.0265
     39 H19        -4.3226    8.3370   18.0925 H           1 STE       0.0265
     40 H20        -5.2675    7.0448   17.3455 H           1 STE       0.0265
     41 H21        -5.4293    5.8443   19.4467 H           1 STE       0.0265
     42 H22        -4.6756    7.1829   20.3328 H           1 STE       0.0265
     43 H23        -2.5098    6.7041   19.5215 H           1 STE       0.0265
     44 H24        -3.1147    5.7600   18.1523 H           1 STE       0.0265
     45 H25        -2.0204    4.3912   19.9454 H           1 STE       0.0265
     46 H26        -3.6196    3.8751   19.4824 H           1 STE       0.0265
     47 H27        -3.8190    5.6825   21.8050 H           1 STE       0.0265
     48 H28        -2.6070    4.4890   22.1402 H           1 STE       0.0265
     49 H29        -5.2277    3.4058   21.0555 H           1 STE       0.0265
     50 H30        -5.3027    4.1766   22.6157 H           1 STE       0.0265
     51 H31        -4.9379    2.0137   23.2769 H           1 STE       0.0263
     52 H32        -3.2793    2.6228   23.2740 H           1 STE       0.0263
     53 H33        -3.3903    0.3783   22.2457 H           1 STE       0.0230
     54 H34        -2.9143    1.5578   21.0147 H           1 STE       0.0230
     55 H35        -4.5822    0.9414   21.0587 H           1 STE       0.0230
@<TRIPOS>BOND
     1     1     2  ar
     2     1     3  ar
     3     1     4   1
     4     4     5   1
     5     5     6   1
     6     6     7   1
     7     7     8   1
     8     8     9   1
     9     9    10   1
    10    10    11   1
    11    11    12   1
    12    12    13   1
    13    13    14   1
    14    14    15   1
    15    15    16   1
    16    16    17   1
    17    17    18   1
    18    18    19   1
    19    19    20   1
    20     4    21   1
    21     4    22   1
    22     5    23   1
    23     5    24   1
    24     6    25   1
    25     6    26   1
    26     7    27   1
    27     7    28   1
    28     8    29   1
    29     8    30   1
    30     9    31   1
    31     9    32   1
    32    10    33   1
    33    10    34   1
    34    11    35   1
    35    11    36   1
    36    12    37   1
    37    12    38   1
    38    13    39   1
    39    13    40   1
    40    14    41   1
    41    14    42   1
    42    15    43   1
    43    15    44   1
    44    16    45   1
    45    16    46   1
    46    17    47   1
    47    17    48   1
    48    18    49   1
    49    18    50   1
    50    19    51   1
    51    19    52   1
    52    20    53   1
    53    20    54   1
    54    20    55   1
@<TRIPOS>SUBSTRUCTURE
     1  STE      1

