@<TRIPOS>MOLECULE
3uex_ligand_016
    55    54
SMALL
GAST_HUCK
****
This file was generated by PARSER (from files_GN.cpp)

@<TRIPOS>ATOM
      1 C1        -11.4315    4.0223   21.9561 C.2         1 STE       0.0348
      2 O1        -11.1538    3.3342   20.8223 O.co2       1 STE      -0.5690
      3 O2        -11.4833    3.3622   23.1380 O.co2       1 STE      -0.5690
      4 C2        -11.7582    5.4571   21.9066 C.3         1 STE       0.0002
      5 C3        -10.7241    6.3621   22.6402 C.3         1 STE      -0.0414
      6 C4         -9.4911    6.7808   21.7866 C.3         1 STE      -0.0516
      7 C5         -8.7127    5.6146   21.1153 C.3         1 STE      -0.0530
      8 C6         -7.6301    6.1075   20.1149 C.3         1 STE      -0.0531
      9 C7         -7.1502    5.0028   19.1301 C.3         1 STE      -0.0531
     10 C8         -6.4826    5.5363   17.8217 C.3         1 STE      -0.0531
     11 C9         -5.0236    5.0510   17.5655 C.3         1 STE      -0.0531
     12 C10        -3.9085    6.0229   18.0401 C.3         1 STE      -0.0531
     13 C11        -3.8127    6.2388   19.5769 C.3         1 STE      -0.0531
     14 C12        -2.4585    6.8418   20.0427 C.3         1 STE      -0.0531
     15 C13        -2.4089    8.3985   20.0328 C.3         1 STE      -0.0531
     16 C14        -0.9637    8.9391   20.2393 C.3         1 STE      -0.0531
     17 C15        -0.8328   10.4846   20.4207 C.3         1 STE      -0.0531
     18 C16        -0.5912   11.3206   19.1341 C.3         1 STE      -0.0533
     19 C17        -1.7317   11.2604   18.0703 C.3         1 STE      -0.0559
     20 C18        -1.4782   10.2227   16.9501 C.3         1 STE      -0.0653
     21 H1        -12.7390    5.5838   22.3718 H           1 STE       0.0430
     22 H2        -11.8482    5.7769   20.8666 H           1 STE       0.0430
     23 H3        -10.3842    5.8810   23.5641 H           1 STE       0.0283
     24 H4        -11.2416    7.2825   22.9375 H           1 STE       0.0283
     25 H5         -8.8044    7.3322   22.4345 H           1 STE       0.0266
     26 H6         -9.8376    7.4785   21.0169 H           1 STE       0.0266
     27 H7         -9.4229    4.9924   20.5657 H           1 STE       0.0265
     28 H8         -8.2479    4.9961   21.8888 H           1 STE       0.0265
     29 H9         -6.7744    6.4825   20.6818 H           1 STE       0.0265
     30 H10        -8.0360    6.9461   19.5416 H           1 STE       0.0265
     31 H11        -8.0122    4.3901   18.8399 H           1 STE       0.0265
     32 H12        -6.4690    4.3418   19.6737 H           1 STE       0.0265
     33 H13        -6.5018    6.6301   17.7896 H           1 STE       0.0265
     34 H14        -7.0990    5.2044   16.9784 H           1 STE       0.0265
     35 H15        -4.8950    4.9252   16.4856 H           1 STE       0.0265
     36 H16        -4.8653    4.0627   18.0101 H           1 STE       0.0265
     37 H17        -4.0624    6.9904   17.5536 H           1 STE       0.0265
     38 H18        -2.9573    5.6208   17.6830 H           1 STE       0.0265
     39 H19        -3.9439    5.2745   20.0763 H           1 STE       0.0265
     40 H20        -4.6186    6.9009   19.9003 H           1 STE       0.0265
     41 H21        -1.6522    6.4393   19.4205 H           1 STE       0.0265
     42 H22        -2.2762    6.5076   21.0716 H           1 STE       0.0265
     43 H23        -3.0613    8.7789   20.8280 H           1 STE       0.0265
     44 H24        -2.7905    8.7607   19.0745 H           1 STE       0.0265
     45 H25        -0.3411    8.6187   19.3982 H           1 STE       0.0265
     46 H26        -0.5547    8.4663   21.1411 H           1 STE       0.0265
     47 H27         0.0291   10.6588   21.0773 H           1 STE       0.0265
     48 H28        -1.7133   10.8741   20.9458 H           1 STE       0.0265
     49 H29         0.3693   11.0320   18.6900 H           1 STE       0.0265
     50 H30        -0.4820   12.3630   19.4538 H           1 STE       0.0265
     51 H31        -1.8258   12.2472   17.6030 H           1 STE       0.0263
     52 H32        -2.6901   11.0482   18.5579 H           1 STE       0.0263
     53 H33        -2.3736   10.1421   16.3231 H           1 STE       0.0230
     54 H34        -1.2493    9.2359   17.3730 H           1 STE       0.0230
     55 H35        -0.6348   10.5498   16.3257 H           1 STE       0.0230
@<TRIPOS>BOND
     1     1     2  ar
     2     1     3  ar
     3     1     4   1
     4     4     5   1
     5     5     6   1
     6     6     7   1
     7     7     8   1
     8     8     9   1
     9     9    10   1
    10    10    11   1
    11    11    12   1
    12    12    13   1
    13    13    14   1
    14    14    15   1
    15    15    16   1
    16    16    17   1
    17    17    18   1
    18    18    19   1
    19    19    20   1
    20     4    21   1
    21     4    22   1
    22     5    23   1
    23     5    24   1
    24     6    25   1
    25     6    26   1
    26     7    27   1
    27     7    28   1
    28     8    29   1
    29     8    30   1
    30     9    31   1
    31     9    32   1
    32    10    33   1
    33    10    34   1
    34    11    35   1
    35    11    36   1
    36    12    37   1
    37    12    38   1
    38    13    39   1
    39    13    40   1
    40    14    41   1
    41    14    42   1
    42    15    43   1
    43    15    44   1
    44    16    45   1
    45    16    46   1
    46    17    47   1
    47    17    48   1
    48    18    49   1
    49    18    50   1
    50    19    51   1
    51    19    52   1
    52    20    53   1
    53    20    54   1
    54    20    55   1
@<TRIPOS>SUBSTRUCTURE
     1  STE      1

