@<TRIPOS>MOLECULE
3uex_ligand_041
    55    54
SMALL
GAST_HUCK
****
This file was generated by PARSER (from files_GN.cpp)

@<TRIPOS>ATOM
      1 C1         -9.6662    2.1988   24.5766 C.2         1 STE       0.0348
      2 O1        -10.8010    2.9311   24.6524 O.co2       1 STE      -0.5690
      3 O2         -8.7752    2.2682   25.5933 O.co2       1 STE      -0.5690
      4 C2         -9.3421    1.4579   23.3458 C.3         1 STE       0.0002
      5 C3         -9.0355    2.3836   22.1334 C.3         1 STE      -0.0414
      6 C4         -7.8970    3.4015   22.4175 C.3         1 STE      -0.0516
      7 C5         -7.2141    4.0193   21.1647 C.3         1 STE      -0.0530
      8 C6         -8.0044    5.1618   20.4731 C.3         1 STE      -0.0531
      9 C7         -7.2576    5.8077   19.2641 C.3         1 STE      -0.0531
     10 C8         -5.7385    6.1038   19.4480 C.3         1 STE      -0.0531
     11 C9         -5.3847    7.3050   20.3874 C.3         1 STE      -0.0531
     12 C10        -4.1205    7.1203   21.2872 C.3         1 STE      -0.0531
     13 C11        -2.7495    6.8163   20.6026 C.3         1 STE      -0.0531
     14 C12        -1.9409    8.0305   20.0627 C.3         1 STE      -0.0531
     15 C13        -2.6247    8.7771   18.8797 C.3         1 STE      -0.0531
     16 C14        -1.7070    9.7792   18.1033 C.3         1 STE      -0.0531
     17 C15        -1.9939   11.2907   18.3632 C.3         1 STE      -0.0531
     18 C16        -1.7052   11.7752   19.8109 C.3         1 STE      -0.0533
     19 C17        -0.2136   12.1542   20.0709 C.3         1 STE      -0.0559
     20 C18         0.2323   11.9112   21.5322 C.3         1 STE      -0.0653
     21 H1        -10.1842    0.8097   23.1020 H           1 STE       0.0430
     22 H2         -8.4739    0.8149   23.5272 H           1 STE       0.0430
     23 H3         -9.9442    2.9230   21.8466 H           1 STE       0.0283
     24 H4         -8.7518    1.7431   21.2903 H           1 STE       0.0283
     25 H5         -7.1132    2.8927   22.9911 H           1 STE       0.0266
     26 H6         -8.2868    4.2102   23.0440 H           1 STE       0.0266
     27 H7         -7.0048    3.2262   20.4380 H           1 STE       0.0265
     28 H8         -6.2551    4.4188   21.5021 H           1 STE       0.0265
     29 H9         -8.2398    5.9348   21.2106 H           1 STE       0.0265
     30 H10        -8.9563    4.7669   20.1063 H           1 STE       0.0265
     31 H11        -7.7650    6.7402   19.0025 H           1 STE       0.0265
     32 H12        -7.3621    5.1324   18.4090 H           1 STE       0.0265
     33 H13        -5.3161    6.3209   18.4585 H           1 STE       0.0265
     34 H14        -5.2541    5.1873   19.7977 H           1 STE       0.0265
     35 H15        -6.2171    7.4952   21.0702 H           1 STE       0.0265
     36 H16        -5.2788    8.2116   19.7848 H           1 STE       0.0265
     37 H17        -4.3263    6.2889   21.9699 H           1 STE       0.0265
     38 H18        -4.0020    8.0157   21.9101 H           1 STE       0.0265
     39 H19        -2.8821    6.0856   19.8018 H           1 STE       0.0265
     40 H20        -2.1130    6.3408   21.3593 H           1 STE       0.0265
     41 H21        -0.9746    7.6426   19.7199 H           1 STE       0.0265
     42 H22        -1.7420    8.7291   20.8792 H           1 STE       0.0265
     43 H23        -3.5064    9.2986   19.2550 H           1 STE       0.0265
     44 H24        -2.9731    8.0233   18.1654 H           1 STE       0.0265
     45 H25        -1.8633    9.6111   17.0318 H           1 STE       0.0265
     46 H26        -0.6501    9.5688   18.2962 H           1 STE       0.0265
     47 H27        -3.0429   11.4940   18.1261 H           1 STE       0.0265
     48 H28        -1.3926   11.8829   17.6666 H           1 STE       0.0265
     49 H29        -2.0402   11.0090   20.5140 H           1 STE       0.0265
     50 H30        -2.3153   12.6651   20.0064 H           1 STE       0.0265
     51 H31        -0.0653   13.2131   19.8270 H           1 STE       0.0263
     52 H32         0.4531   11.5810   19.4189 H           1 STE       0.0263
     53 H33         1.2324   12.3278   21.6913 H           1 STE       0.0230
     54 H34         0.2668   10.8346   21.7329 H           1 STE       0.0230
     55 H35        -0.4623   12.3849   22.2349 H           1 STE       0.0230
@<TRIPOS>BOND
     1     1     2  ar
     2     1     3  ar
     3     1     4   1
     4     4     5   1
     5     5     6   1
     6     6     7   1
     7     7     8   1
     8     8     9   1
     9     9    10   1
    10    10    11   1
    11    11    12   1
    12    12    13   1
    13    13    14   1
    14    14    15   1
    15    15    16   1
    16    16    17   1
    17    17    18   1
    18    18    19   1
    19    19    20   1
    20     4    21   1
    21     4    22   1
    22     5    23   1
    23     5    24   1
    24     6    25   1
    25     6    26   1
    26     7    27   1
    27     7    28   1
    28     8    29   1
    29     8    30   1
    30     9    31   1
    31     9    32   1
    32    10    33   1
    33    10    34   1
    34    11    35   1
    35    11    36   1
    36    12    37   1
    37    12    38   1
    38    13    39   1
    39    13    40   1
    40    14    41   1
    41    14    42   1
    42    15    43   1
    43    15    44   1
    44    16    45   1
    45    16    46   1
    46    17    47   1
    47    17    48   1
    48    18    49   1
    49    18    50   1
    50    19    51   1
    51    19    52   1
    52    20    53   1
    53    20    54   1
    54    20    55   1
@<TRIPOS>SUBSTRUCTURE
     1  STE      1

