@<TRIPOS>MOLECULE
3uex_ligand_024
    55    54
SMALL
GAST_HUCK
****
This file was generated by PARSER (from files_GN.cpp)

@<TRIPOS>ATOM
      1 C1         -3.8285    0.1863   14.3077 C.2         1 STE       0.0348
      2 O1         -5.1814    0.2030   14.2575 O.co2       1 STE      -0.5690
      3 O2         -3.1952   -0.6719   15.1459 O.co2       1 STE      -0.5690
      4 C2         -3.0495    1.0606   13.4116 C.3         1 STE       0.0002
      5 C3         -2.2918    2.2028   14.1463 C.3         1 STE      -0.0414
      6 C4         -2.8999    2.5842   15.5329 C.3         1 STE      -0.0516
      7 C5         -2.3544    3.9422   16.0725 C.3         1 STE      -0.0530
      8 C6         -3.0676    4.4376   17.3645 C.3         1 STE      -0.0531
      9 C7         -4.2469    5.4171   17.0795 C.3         1 STE      -0.0531
     10 C8         -5.0232    5.8366   18.3662 C.3         1 STE      -0.0531
     11 C9         -5.9319    7.0938   18.1566 C.3         1 STE      -0.0531
     12 C10        -5.4106    8.4176   18.8010 C.3         1 STE      -0.0531
     13 C11        -3.8966    8.7354   18.5831 C.3         1 STE      -0.0531
     14 C12        -3.6113   10.2699   18.5692 C.3         1 STE      -0.0531
     15 C13        -2.1898   10.6522   18.0481 C.3         1 STE      -0.0531
     16 C14        -0.9816   10.2837   18.9626 C.3         1 STE      -0.0531
     17 C15        -1.1249   10.6403   20.4729 C.3         1 STE      -0.0531
     18 C16        -1.0544   12.1703   20.8096 C.3         1 STE      -0.0533
     19 C17        -2.4057   12.8529   21.1914 C.3         1 STE      -0.0559
     20 C18        -2.9543   12.4361   22.5866 C.3         1 STE      -0.0653
     21 H1         -3.7112    1.5163   12.6662 H           1 STE       0.0430
     22 H2         -2.3150    0.4562   12.8771 H           1 STE       0.0430
     23 H3         -2.3053    3.0874   13.4924 H           1 STE       0.0283
     24 H4         -1.2402    1.9109   14.2938 H           1 STE       0.0283
     25 H5         -2.6403    1.7966   16.2559 H           1 STE       0.0266
     26 H6         -3.9931    2.6250   15.4481 H           1 STE       0.0266
     27 H7         -2.4454    4.7047   15.2883 H           1 STE       0.0265
     28 H8         -1.2917    3.8152   16.3005 H           1 STE       0.0265
     29 H9         -2.3269    4.9714   17.9699 H           1 STE       0.0265
     30 H10        -3.4282    3.5821   17.9449 H           1 STE       0.0265
     31 H11        -4.9606    4.9468   16.3879 H           1 STE       0.0265
     32 H12        -3.8298    6.3032   16.5842 H           1 STE       0.0265
     33 H13        -4.3184    6.0226   19.1893 H           1 STE       0.0265
     34 H14        -5.6539    4.9872   18.6684 H           1 STE       0.0265
     35 H15        -6.9144    6.8774   18.5938 H           1 STE       0.0265
     36 H16        -6.0946    7.2658   17.0815 H           1 STE       0.0265
     37 H17        -5.6052    8.3766   19.8850 H           1 STE       0.0265
     38 H18        -6.0241    9.2278   18.3795 H           1 STE       0.0265
     39 H19        -3.5532    8.2949   17.6313 H           1 STE       0.0265
     40 H20        -3.3332    8.2692   19.4055 H           1 STE       0.0265
     41 H21        -3.7454   10.6758   19.5837 H           1 STE       0.0265
     42 H22        -4.3453   10.7419   17.8920 H           1 STE       0.0265
     43 H23        -2.1701   11.7345   17.8859 H           1 STE       0.0265
     44 H24        -2.0241   10.1737   17.0705 H           1 STE       0.0265
     45 H25        -0.0887   10.7884   18.5676 H           1 STE       0.0265
     46 H26        -0.8013    9.2037   18.8786 H           1 STE       0.0265
     47 H27        -0.2878   10.1437   20.9861 H           1 STE       0.0265
     48 H28        -2.0562   10.1953   20.8446 H           1 STE       0.0265
     49 H29        -0.6248   12.7190   19.9602 H           1 STE       0.0265
     50 H30        -0.3578   12.3124   21.6436 H           1 STE       0.0265
     51 H31        -3.1639   12.6401   20.4219 H           1 STE       0.0263
     52 H32        -2.2356   13.9407   21.2124 H           1 STE       0.0263
     53 H33        -3.8133   13.0618   22.8532 H           1 STE       0.0230
     54 H34        -2.1701   12.5607   23.3499 H           1 STE       0.0230
     55 H35        -3.2837   11.3880   22.5676 H           1 STE       0.0230
@<TRIPOS>BOND
     1     1     2  ar
     2     1     3  ar
     3     1     4   1
     4     4     5   1
     5     5     6   1
     6     6     7   1
     7     7     8   1
     8     8     9   1
     9     9    10   1
    10    10    11   1
    11    11    12   1
    12    12    13   1
    13    13    14   1
    14    14    15   1
    15    15    16   1
    16    16    17   1
    17    17    18   1
    18    18    19   1
    19    19    20   1
    20     4    21   1
    21     4    22   1
    22     5    23   1
    23     5    24   1
    24     6    25   1
    25     6    26   1
    26     7    27   1
    27     7    28   1
    28     8    29   1
    29     8    30   1
    30     9    31   1
    31     9    32   1
    32    10    33   1
    33    10    34   1
    34    11    35   1
    35    11    36   1
    36    12    37   1
    37    12    38   1
    38    13    39   1
    39    13    40   1
    40    14    41   1
    41    14    42   1
    42    15    43   1
    43    15    44   1
    44    16    45   1
    45    16    46   1
    46    17    47   1
    47    17    48   1
    48    18    49   1
    49    18    50   1
    50    19    51   1
    51    19    52   1
    52    20    53   1
    53    20    54   1
    54    20    55   1
@<TRIPOS>SUBSTRUCTURE
     1  STE      1

