@<TRIPOS>MOLECULE
3uex_ligand_005
    55    54
SMALL
GAST_HUCK
****
This file was generated by PARSER (from files_GN.cpp)

@<TRIPOS>ATOM
      1 C1         -5.1274    0.3291   15.6851 C.2         1 STE       0.0348
      2 O1         -5.3254    0.1410   14.3606 O.co2       1 STE      -0.5690
      3 O2         -4.5633   -0.6795   16.3992 O.co2       1 STE      -0.5690
      4 C2         -5.2065    1.6886   16.2495 C.3         1 STE       0.0002
      5 C3         -6.6173    2.3156   16.0954 C.3         1 STE      -0.0414
      6 C4         -6.6007    3.8677   16.1388 C.3         1 STE      -0.0516
      7 C5         -6.8351    4.4800   17.5539 C.3         1 STE      -0.0530
      8 C6         -6.3464    5.9413   17.6253 C.3         1 STE      -0.0531
      9 C7         -6.6423    6.6194   18.9943 C.3         1 STE      -0.0531
     10 C8         -5.8729    7.9551   19.1798 C.3         1 STE      -0.0531
     11 C9         -4.4580    7.7776   19.8203 C.3         1 STE      -0.0531
     12 C10        -3.5747    9.0673   19.7589 C.3         1 STE      -0.0531
     13 C11        -2.6859    9.1388   18.4850 C.3         1 STE      -0.0531
     14 C12        -2.3731   10.5606   17.9299 C.3         1 STE      -0.0531
     15 C13        -3.5396   11.6056   17.9373 C.3         1 STE      -0.0531
     16 C14        -3.5977   12.6352   19.1090 C.3         1 STE      -0.0531
     17 C15        -2.2216   13.0670   19.7221 C.3         1 STE      -0.0531
     18 C16        -1.8189   12.3495   21.0572 C.3         1 STE      -0.0533
     19 C17        -0.5131   11.4916   21.0160 C.3         1 STE      -0.0559
     20 C18         0.5695   11.9576   22.0214 C.3         1 STE      -0.0653
     21 H1         -4.4777    2.3047   15.7166 H           1 STE       0.0430
     22 H2         -4.9315    1.6701   17.3059 H           1 STE       0.0430
     23 H3         -7.2840    1.9190   16.8743 H           1 STE       0.0283
     24 H4         -7.0389    2.0093   15.1306 H           1 STE       0.0283
     25 H5         -7.3879    4.2483   15.4764 H           1 STE       0.0266
     26 H6         -5.6471    4.2452   15.7504 H           1 STE       0.0266
     27 H7         -6.3017    3.8767   18.2992 H           1 STE       0.0265
     28 H8         -7.9092    4.4313   17.7769 H           1 STE       0.0265
     29 H9         -6.8396    6.5299   16.8447 H           1 STE       0.0265
     30 H10        -5.2693    5.9546   17.4258 H           1 STE       0.0265
     31 H11        -6.4038    5.9372   19.8190 H           1 STE       0.0265
     32 H12        -7.7162    6.8311   19.0362 H           1 STE       0.0265
     33 H13        -6.4658    8.6113   19.8304 H           1 STE       0.0265
     34 H14        -5.7960    8.4603   18.2062 H           1 STE       0.0265
     35 H15        -3.9160    6.9534   19.3370 H           1 STE       0.0265
     36 H16        -4.6044    7.5069   20.8763 H           1 STE       0.0265
     37 H17        -2.9232    9.0943   20.6462 H           1 STE       0.0265
     38 H18        -4.2369    9.9381   19.7818 H           1 STE       0.0265
     39 H19        -3.1675    8.5593   17.6906 H           1 STE       0.0265
     40 H20        -1.7253    8.6562   18.7112 H           1 STE       0.0265
     41 H21        -2.0903   10.4070   16.8729 H           1 STE       0.0265
     42 H22        -1.4898   10.9710   18.4357 H           1 STE       0.0265
     43 H23        -4.4953   11.0665   17.8934 H           1 STE       0.0265
     44 H24        -3.4627   12.1898   17.0125 H           1 STE       0.0265
     45 H25        -4.2729   12.2747   19.8892 H           1 STE       0.0265
     46 H26        -4.0730   13.5323   18.6936 H           1 STE       0.0265
     47 H27        -2.2872   14.1467   19.9364 H           1 STE       0.0265
     48 H28        -1.4367   12.9597   18.9577 H           1 STE       0.0265
     49 H29        -2.6305   11.6984   21.3998 H           1 STE       0.0265
     50 H30        -1.7335   13.1216   21.8305 H           1 STE       0.0265
     51 H31        -0.0578   11.4953   20.0177 H           1 STE       0.0263
     52 H32        -0.7611   10.4517   21.2507 H           1 STE       0.0263
     53 H33         1.3460   11.1892   22.1278 H           1 STE       0.0230
     54 H34         0.1267   12.1440   23.0091 H           1 STE       0.0230
     55 H35         1.0352   12.8830   21.6601 H           1 STE       0.0230
@<TRIPOS>BOND
     1     1     2  ar
     2     1     3  ar
     3     1     4   1
     4     4     5   1
     5     5     6   1
     6     6     7   1
     7     7     8   1
     8     8     9   1
     9     9    10   1
    10    10    11   1
    11    11    12   1
    12    12    13   1
    13    13    14   1
    14    14    15   1
    15    15    16   1
    16    16    17   1
    17    17    18   1
    18    18    19   1
    19    19    20   1
    20     4    21   1
    21     4    22   1
    22     5    23   1
    23     5    24   1
    24     6    25   1
    25     6    26   1
    26     7    27   1
    27     7    28   1
    28     8    29   1
    29     8    30   1
    30     9    31   1
    31     9    32   1
    32    10    33   1
    33    10    34   1
    34    11    35   1
    35    11    36   1
    36    12    37   1
    37    12    38   1
    38    13    39   1
    39    13    40   1
    40    14    41   1
    41    14    42   1
    42    15    43   1
    43    15    44   1
    44    16    45   1
    45    16    46   1
    46    17    47   1
    47    17    48   1
    48    18    49   1
    49    18    50   1
    50    19    51   1
    51    19    52   1
    52    20    53   1
    53    20    54   1
    54    20    55   1
@<TRIPOS>SUBSTRUCTURE
     1  STE      1

