@<TRIPOS>MOLECULE
3uex_ligand_000
    55    54
SMALL
GAST_HUCK
****
This file was generated by PARSER (from files_GN.cpp)

@<TRIPOS>ATOM
      1 C1         -5.4397    0.8291   15.7884 C.2         1 STE       0.0348
      2 O1         -5.3684    0.2803   14.5528 O.co2       1 STE      -0.5690
      3 O2         -4.7156    0.2835   16.7929 O.co2       1 STE      -0.5690
      4 C2         -6.3493    1.9822   15.9691 C.3         1 STE       0.0002
      5 C3         -6.7680    2.3165   17.4322 C.3         1 STE      -0.0414
      6 C4         -6.2287    3.6665   17.9858 C.3         1 STE      -0.0516
      7 C5         -6.6280    4.8928   17.1048 C.3         1 STE      -0.0530
      8 C6         -6.3914    6.2829   17.7543 C.3         1 STE      -0.0531
      9 C7         -4.9098    6.6120   18.0913 C.3         1 STE      -0.0531
     10 C8         -4.7887    8.0133   18.7495 C.3         1 STE      -0.0531
     11 C9         -3.3696    8.6402   18.6315 C.3         1 STE      -0.0531
     12 C10        -3.1886    9.9638   19.4347 C.3         1 STE      -0.0531
     13 C11        -4.0603   11.1810   18.9913 C.3         1 STE      -0.0531
     14 C12        -3.5113   11.9446   17.7566 C.3         1 STE      -0.0531
     15 C13        -4.3314   13.2067   17.3488 C.3         1 STE      -0.0531
     16 C14        -3.5756   14.5605   17.4642 C.3         1 STE      -0.0531
     17 C15        -3.4233   15.1155   18.9105 C.3         1 STE      -0.0531
     18 C16        -2.2668   16.1391   19.0846 C.3         1 STE      -0.0533
     19 C17        -2.3425   17.4348   18.2295 C.3         1 STE      -0.0559
     20 C18        -3.6184   18.2890   18.4497 C.3         1 STE      -0.0653
     21 H1         -7.2607    1.7535   15.4095 H           1 STE       0.0430
     22 H2         -5.8860    2.8480   15.4885 H           1 STE       0.0430
     23 H3         -6.4572    1.5174   18.1116 H           1 STE       0.0283
     24 H4         -7.8602    2.3537   17.4869 H           1 STE       0.0283
     25 H5         -5.1360    3.6224   18.0760 H           1 STE       0.0266
     26 H6         -6.6453    3.8066   18.9890 H           1 STE       0.0266
     27 H7         -7.6972    4.8332   16.8801 H           1 STE       0.0265
     28 H8         -6.0864    4.8534   16.1561 H           1 STE       0.0265
     29 H9         -6.9900    6.3540   18.6683 H           1 STE       0.0265
     30 H10        -6.7604    7.0402   17.0511 H           1 STE       0.0265
     31 H11        -4.3159    6.5896   17.1694 H           1 STE       0.0265
     32 H12        -4.5104    5.8569   18.7786 H           1 STE       0.0265
     33 H13        -5.0565    7.9317   19.8094 H           1 STE       0.0265
     34 H14        -5.4971    8.6898   18.2661 H           1 STE       0.0265
     35 H15        -3.1386    8.8117   17.5722 H           1 STE       0.0265
     36 H16        -2.6384    7.9156   19.0117 H           1 STE       0.0265
     37 H17        -2.1291   10.2471   19.3925 H           1 STE       0.0265
     38 H18        -3.4130    9.7496   20.4845 H           1 STE       0.0265
     39 H19        -4.1048   11.8648   19.8441 H           1 STE       0.0265
     40 H20        -5.0857   10.8443   18.7921 H           1 STE       0.0265
     41 H21        -3.5097   11.2538   16.9023 H           1 STE       0.0265
     42 H22        -2.4595   12.2222   17.9381 H           1 STE       0.0265
     43 H23        -5.2552   13.2653   17.9275 H           1 STE       0.0265
     44 H24        -4.6221   13.0933   16.2980 H           1 STE       0.0265
     45 H25        -4.1385   15.2950   16.8753 H           1 STE       0.0265
     46 H26        -2.5841   14.4573   17.0061 H           1 STE       0.0265
     47 H27        -3.2163   14.2884   19.5852 H           1 STE       0.0265
     48 H28        -4.3736   15.5678   19.2197 H           1 STE       0.0265
     49 H29        -1.3193   15.6358   18.8536 H           1 STE       0.0265
     50 H30        -2.2199   16.4217   20.1385 H           1 STE       0.0265
     51 H31        -2.2580   17.1843   17.1645 H           1 STE       0.0263
     52 H32        -1.4787   18.0577   18.4884 H           1 STE       0.0263
     53 H33        -3.5176   19.2409   17.9176 H           1 STE       0.0230
     54 H34        -3.7608   18.4939   19.5124 H           1 STE       0.0230
     55 H35        -4.4997   17.7638   18.0629 H           1 STE       0.0230
@<TRIPOS>BOND
     1     1     2  ar
     2     1     3  ar
     3     1     4   1
     4     4     5   1
     5     5     6   1
     6     6     7   1
     7     7     8   1
     8     8     9   1
     9     9    10   1
    10    10    11   1
    11    11    12   1
    12    12    13   1
    13    13    14   1
    14    14    15   1
    15    15    16   1
    16    16    17   1
    17    17    18   1
    18    18    19   1
    19    19    20   1
    20     4    21   1
    21     4    22   1
    22     5    23   1
    23     5    24   1
    24     6    25   1
    25     6    26   1
    26     7    27   1
    27     7    28   1
    28     8    29   1
    29     8    30   1
    30     9    31   1
    31     9    32   1
    32    10    33   1
    33    10    34   1
    34    11    35   1
    35    11    36   1
    36    12    37   1
    37    12    38   1
    38    13    39   1
    39    13    40   1
    40    14    41   1
    41    14    42   1
    42    15    43   1
    43    15    44   1
    44    16    45   1
    45    16    46   1
    46    17    47   1
    47    17    48   1
    48    18    49   1
    49    18    50   1
    50    19    51   1
    51    19    52   1
    52    20    53   1
    53    20    54   1
    54    20    55   1
@<TRIPOS>SUBSTRUCTURE
     1  STE      1

