@<TRIPOS>MOLECULE
3uex_ligand_035
    55    54
SMALL
GAST_HUCK
****
This file was generated by PARSER (from files_GN.cpp)

@<TRIPOS>ATOM
      1 C1         -4.8692   -0.0266   14.8396 C.2         1 STE       0.0348
      2 O1         -5.1853   -0.6262   13.6683 O.co2       1 STE      -0.5690
      3 O2         -5.5358    1.1028   15.1383 O.co2       1 STE      -0.5690
      4 C2         -3.8583   -0.6374   15.7276 C.3         1 STE       0.0002
      5 C3         -3.6049    0.1436   17.0491 C.3         1 STE      -0.0414
      6 C4         -2.8122    1.4705   16.8541 C.3         1 STE      -0.0516
      7 C5         -3.2264    2.6454   17.7773 C.3         1 STE      -0.0530
      8 C6         -3.3598    2.3188   19.2970 C.3         1 STE      -0.0531
      9 C7         -3.2271    3.5325   20.2560 C.3         1 STE      -0.0531
     10 C8         -4.0333    4.8051   19.8537 C.3         1 STE      -0.0531
     11 C9         -4.0276    5.9678   20.8877 C.3         1 STE      -0.0531
     12 C10        -2.6736    6.3716   21.5369 C.3         1 STE      -0.0531
     13 C11        -1.4261    6.5249   20.6132 C.3         1 STE      -0.0531
     14 C12        -1.1053    7.9434   20.0551 C.3         1 STE      -0.0531
     15 C13        -2.1975    8.5740   19.1495 C.3         1 STE      -0.0531
     16 C14        -1.6548    9.6586   18.1561 C.3         1 STE      -0.0531
     17 C15        -2.0669   11.1254   18.4695 C.3         1 STE      -0.0531
     18 C16        -1.7426   11.6313   19.8996 C.3         1 STE      -0.0533
     19 C17        -0.2833   12.1282   20.0960 C.3         1 STE      -0.0559
     20 C18         0.2208   11.9423   21.5463 C.3         1 STE      -0.0653
     21 H1         -2.9159   -0.7360   15.1791 H           1 STE       0.0430
     22 H2         -4.2087   -1.6413   15.9740 H           1 STE       0.0430
     23 H3         -3.0362   -0.5047   17.7219 H           1 STE       0.0283
     24 H4         -4.5677    0.3336   17.5312 H           1 STE       0.0283
     25 H5         -2.9179    1.8270   15.8235 H           1 STE       0.0266
     26 H6         -1.7478    1.2673   17.0016 H           1 STE       0.0266
     27 H7         -4.1847    3.0403   17.4302 H           1 STE       0.0265
     28 H8         -2.4798    3.4290   17.6375 H           1 STE       0.0265
     29 H9         -2.5864    1.5974   19.5725 H           1 STE       0.0265
     30 H10        -4.3270    1.8398   19.4672 H           1 STE       0.0265
     31 H11        -2.1647    3.7706   20.3153 H           1 STE       0.0265
     32 H12        -3.5451    3.2233   21.2576 H           1 STE       0.0265
     33 H13        -5.0705    4.5133   19.6631 H           1 STE       0.0265
     34 H14        -3.6441    5.2044   18.9190 H           1 STE       0.0265
     35 H15        -4.7019    5.6920   21.6975 H           1 STE       0.0265
     36 H16        -4.4630    6.8461   20.4099 H           1 STE       0.0265
     37 H17        -2.4403    5.6117   22.2869 H           1 STE       0.0265
     38 H18        -2.8199    7.3023   22.0925 H           1 STE       0.0265
     39 H19        -1.4618    5.8294   19.7732 H           1 STE       0.0265
     40 H20        -0.5527    6.2307   21.1991 H           1 STE       0.0265
     41 H21        -0.1849    7.8415   19.4708 H           1 STE       0.0265
     42 H22        -0.8778    8.6116   20.8893 H           1 STE       0.0265
     43 H23        -2.9830    8.9930   19.7815 H           1 STE       0.0265
     44 H24        -2.6644    7.7714   18.5709 H           1 STE       0.0265
     45 H25        -2.0391    9.4212   17.1615 H           1 STE       0.0265
     46 H26        -0.5675    9.6072   18.0790 H           1 STE       0.0265
     47 H27        -3.1427   11.2064   18.3132 H           1 STE       0.0265
     48 H28        -1.5921   11.7861   17.7403 H           1 STE       0.0265
     49 H29        -1.9651   10.8533   20.6270 H           1 STE       0.0265
     50 H30        -2.4098   12.4610   20.1350 H           1 STE       0.0265
     51 H31        -0.2328   13.1869   19.8332 H           1 STE       0.0263
     52 H32         0.3923   11.5928   19.4269 H           1 STE       0.0263
     53 H33         1.1886   12.4359   21.6671 H           1 STE       0.0230
     54 H34         0.3451   10.8775   21.7661 H           1 STE       0.0230
     55 H35        -0.4854   12.3743   22.2611 H           1 STE       0.0230
@<TRIPOS>BOND
     1     1     2  ar
     2     1     3  ar
     3     1     4   1
     4     4     5   1
     5     5     6   1
     6     6     7   1
     7     7     8   1
     8     8     9   1
     9     9    10   1
    10    10    11   1
    11    11    12   1
    12    12    13   1
    13    13    14   1
    14    14    15   1
    15    15    16   1
    16    16    17   1
    17    17    18   1
    18    18    19   1
    19    19    20   1
    20     4    21   1
    21     4    22   1
    22     5    23   1
    23     5    24   1
    24     6    25   1
    25     6    26   1
    26     7    27   1
    27     7    28   1
    28     8    29   1
    29     8    30   1
    30     9    31   1
    31     9    32   1
    32    10    33   1
    33    10    34   1
    34    11    35   1
    35    11    36   1
    36    12    37   1
    37    12    38   1
    38    13    39   1
    39    13    40   1
    40    14    41   1
    41    14    42   1
    42    15    43   1
    43    15    44   1
    44    16    45   1
    45    16    46   1
    46    17    47   1
    47    17    48   1
    48    18    49   1
    49    18    50   1
    50    19    51   1
    51    19    52   1
    52    20    53   1
    53    20    54   1
    54    20    55   1
@<TRIPOS>SUBSTRUCTURE
     1  STE      1

