@<TRIPOS>MOLECULE
3uex_ligand_027
    55    54
SMALL
GAST_HUCK
****
This file was generated by PARSER (from files_GN.cpp)

@<TRIPOS>ATOM
      1 C1         -4.7274    0.0113   15.2713 C.2         1 STE       0.0348
      2 O1         -5.2844   -0.0884   14.0403 O.co2       1 STE      -0.5690
      3 O2         -4.0701   -1.0547   15.7749 O.co2       1 STE      -0.5690
      4 C2         -4.7203    1.3096   15.9664 C.3         1 STE       0.0002
      5 C3         -6.1475    1.7504   16.3864 C.3         1 STE      -0.0414
      6 C4         -6.1885    3.2230   16.8770 C.3         1 STE      -0.0516
      7 C5         -7.5493    3.6413   17.5072 C.3         1 STE      -0.0530
      8 C6         -7.6902    3.3585   19.0349 C.3         1 STE      -0.0531
      9 C7         -7.4340    4.5823   19.9642 C.3         1 STE      -0.0531
     10 C8         -5.9763    5.1110   20.0471 C.3         1 STE      -0.0531
     11 C9         -4.9821    4.1638   20.7921 C.3         1 STE      -0.0531
     12 C10        -3.7967    4.9031   21.4758 C.3         1 STE      -0.0531
     13 C11        -2.8085    5.6075   20.4960 C.3         1 STE      -0.0531
     14 C12        -2.0072    6.7848   21.1449 C.3         1 STE      -0.0531
     15 C13        -1.8908    8.0446   20.2428 C.3         1 STE      -0.0531
     16 C14        -3.2459    8.8032   20.0620 C.3         1 STE      -0.0531
     17 C15        -3.4905    9.4082   18.6499 C.3         1 STE      -0.0531
     18 C16        -2.9647   10.8522   18.4094 C.3         1 STE      -0.0533
     19 C17        -1.4301   11.0851   18.4677 C.3         1 STE      -0.0559
     20 C18        -0.6256   10.3853   17.3459 C.3         1 STE      -0.0653
     21 H1         -4.2794    2.0474   15.2962 H           1 STE       0.0430
     22 H2         -4.0912    1.2413   16.8571 H           1 STE       0.0430
     23 H3         -6.5064    1.0851   17.1777 H           1 STE       0.0283
     24 H4         -6.8270    1.6532   15.5314 H           1 STE       0.0283
     25 H5         -5.9995    3.8656   16.0104 H           1 STE       0.0266
     26 H6         -5.3830    3.3911   17.5949 H           1 STE       0.0266
     27 H7         -8.3498    3.1211   16.9721 H           1 STE       0.0265
     28 H8         -7.7035    4.7068   17.3163 H           1 STE       0.0265
     29 H9         -7.0487    2.5284   19.3377 H           1 STE       0.0265
     30 H10        -8.7240    3.0431   19.2217 H           1 STE       0.0265
     31 H11        -7.7594    4.3218   20.9758 H           1 STE       0.0265
     32 H12        -8.0749    5.4021   19.6344 H           1 STE       0.0265
     33 H13        -6.0179    6.0682   20.5773 H           1 STE       0.0265
     34 H14        -5.6076    5.3204   19.0384 H           1 STE       0.0265
     35 H15        -4.5948    3.4185   20.0923 H           1 STE       0.0265
     36 H16        -5.5216    3.6308   21.5826 H           1 STE       0.0265
     37 H17        -3.2268    4.1827   22.0674 H           1 STE       0.0265
     38 H18        -4.2232    5.6350   22.1717 H           1 STE       0.0265
     39 H19        -3.3564    5.9714   19.6230 H           1 STE       0.0265
     40 H20        -2.1016    4.8574   20.1229 H           1 STE       0.0265
     41 H21        -0.9953    6.4329   21.3773 H           1 STE       0.0265
     42 H22        -2.4542    7.0994   22.0952 H           1 STE       0.0265
     43 H23        -1.4814    7.7351   19.2759 H           1 STE       0.0265
     44 H24        -1.1706    8.7226   20.7085 H           1 STE       0.0265
     45 H25        -3.3199    9.5906   20.8178 H           1 STE       0.0265
     46 H26        -4.0741    8.1130   20.2532 H           1 STE       0.0265
     47 H27        -4.5753    9.4531   18.4979 H           1 STE       0.0265
     48 H28        -3.1020    8.7369   17.8807 H           1 STE       0.0265
     49 H29        -3.4395   11.5166   19.1383 H           1 STE       0.0265
     50 H30        -3.3101   11.1717   17.4196 H           1 STE       0.0265
     51 H31        -1.0436   10.7784   19.4410 H           1 STE       0.0263
     52 H32        -1.2557   12.1615   18.3820 H           1 STE       0.0263
     53 H33         0.4201   10.6902   17.3978 H           1 STE       0.0230
     54 H34        -1.0264   10.6564   16.3686 H           1 STE       0.0230
     55 H35        -0.6698    9.3044   17.4552 H           1 STE       0.0230
@<TRIPOS>BOND
     1     1     2  ar
     2     1     3  ar
     3     1     4   1
     4     4     5   1
     5     5     6   1
     6     6     7   1
     7     7     8   1
     8     8     9   1
     9     9    10   1
    10    10    11   1
    11    11    12   1
    12    12    13   1
    13    13    14   1
    14    14    15   1
    15    15    16   1
    16    16    17   1
    17    17    18   1
    18    18    19   1
    19    19    20   1
    20     4    21   1
    21     4    22   1
    22     5    23   1
    23     5    24   1
    24     6    25   1
    25     6    26   1
    26     7    27   1
    27     7    28   1
    28     8    29   1
    29     8    30   1
    30     9    31   1
    31     9    32   1
    32    10    33   1
    33    10    34   1
    34    11    35   1
    35    11    36   1
    36    12    37   1
    37    12    38   1
    38    13    39   1
    39    13    40   1
    40    14    41   1
    41    14    42   1
    42    15    43   1
    43    15    44   1
    44    16    45   1
    45    16    46   1
    46    17    47   1
    47    17    48   1
    48    18    49   1
    49    18    50   1
    50    19    51   1
    51    19    52   1
    52    20    53   1
    53    20    54   1
    54    20    55   1
@<TRIPOS>SUBSTRUCTURE
     1  STE      1

