@<TRIPOS>MOLECULE
3uex_ligand_043
    55    54
SMALL
GAST_HUCK
****
This file was generated by PARSER (from files_GN.cpp)

@<TRIPOS>ATOM
      1 C1         -7.6139    3.5373   15.4030 C.2         1 STE       0.0348
      2 O1         -7.1543    4.1663   14.2953 O.co2       1 STE      -0.5690
      3 O2         -8.8196    3.8886   15.8964 O.co2       1 STE      -0.5690
      4 C2         -6.8103    2.4999   16.0829 C.3         1 STE       0.0002
      5 C3         -5.5401    3.1005   16.7420 C.3         1 STE      -0.0414
      6 C4         -4.7214    2.0585   17.5612 C.3         1 STE      -0.0516
      7 C5         -3.8610    2.6805   18.7027 C.3         1 STE      -0.0530
      8 C6         -4.7035    3.2639   19.8815 C.3         1 STE      -0.0531
      9 C7         -3.9027    3.5867   21.1766 C.3         1 STE      -0.0531
     10 C8         -2.6169    4.4546   21.0224 C.3         1 STE      -0.0531
     11 C9         -2.7316    5.7343   20.1464 C.3         1 STE      -0.0531
     12 C10        -3.6333    6.8585   20.7294 C.3         1 STE      -0.0531
     13 C11        -4.0795    7.8983   19.6600 C.3         1 STE      -0.0531
     14 C12        -5.2439    7.4582   18.7093 C.3         1 STE      -0.0531
     15 C13        -6.6864    7.8277   19.1749 C.3         1 STE      -0.0531
     16 C14        -7.4009    6.7909   20.0980 C.3         1 STE      -0.0531
     17 C15        -8.4925    7.4640   20.9859 C.3         1 STE      -0.0531
     18 C16        -9.4774    6.4489   21.6544 C.3         1 STE      -0.0533
     19 C17       -10.9114    7.0192   21.8863 C.3         1 STE      -0.0559
     20 C18       -11.0818    7.8541   23.1821 C.3         1 STE      -0.0653
     21 H1         -6.5232    1.7293   15.3651 H           1 STE       0.0430
     22 H2         -7.4263    2.0313   16.8598 H           1 STE       0.0430
     23 H3         -5.8664    3.9175   17.3909 H           1 STE       0.0283
     24 H4         -4.8954    3.5346   15.9666 H           1 STE       0.0283
     25 H5         -4.0591    1.5269   16.8690 H           1 STE       0.0266
     26 H6         -5.3879    1.3083   17.9991 H           1 STE       0.0266
     27 H7         -3.2212    3.4584   18.2709 H           1 STE       0.0265
     28 H8         -3.2041    1.8914   19.0879 H           1 STE       0.0265
     29 H9         -5.4866    2.5320   20.1388 H           1 STE       0.0265
     30 H10        -5.2014    4.1827   19.5472 H           1 STE       0.0265
     31 H11        -3.6209    2.6339   21.6399 H           1 STE       0.0265
     32 H12        -4.5925    4.0881   21.8613 H           1 STE       0.0265
     33 H13        -1.8347    3.8177   20.5954 H           1 STE       0.0265
     34 H14        -2.2923    4.7408   22.0267 H           1 STE       0.0265
     35 H15        -3.0758    5.4517   19.1492 H           1 STE       0.0265
     36 H16        -1.7203    6.1401   20.0355 H           1 STE       0.0265
     37 H17        -3.0558    7.3825   21.5029 H           1 STE       0.0265
     38 H18        -4.5065    6.4257   21.2168 H           1 STE       0.0265
     39 H19        -3.1998    8.1360   19.0461 H           1 STE       0.0265
     40 H20        -4.3597    8.8232   20.1795 H           1 STE       0.0265
     41 H21        -5.1916    6.3845   18.4908 H           1 STE       0.0265
     42 H22        -5.0887    8.0004   17.7661 H           1 STE       0.0265
     43 H23        -7.3178    7.9098   18.2780 H           1 STE       0.0265
     44 H24        -6.6745    8.8173   19.6582 H           1 STE       0.0265
     45 H25        -6.6912    6.2919   20.7619 H           1 STE       0.0265
     46 H26        -7.8787    6.0267   19.4693 H           1 STE       0.0265
     47 H27        -9.0713    8.1581   20.3581 H           1 STE       0.0265
     48 H28        -8.0071    8.0469   21.7815 H           1 STE       0.0265
     49 H29        -9.0594    6.0955   22.6064 H           1 STE       0.0265
     50 H30        -9.5775    5.5733   21.0018 H           1 STE       0.0265
     51 H31       -11.6193    6.1824   21.9349 H           1 STE       0.0263
     52 H32       -11.1975    7.6408   21.0327 H           1 STE       0.0263
     53 H33       -12.0588    8.3485   23.1677 H           1 STE       0.0230
     54 H34       -10.3007    8.6184   23.2578 H           1 STE       0.0230
     55 H35       -11.0358    7.2023   24.0634 H           1 STE       0.0230
@<TRIPOS>BOND
     1     1     2  ar
     2     1     3  ar
     3     1     4   1
     4     4     5   1
     5     5     6   1
     6     6     7   1
     7     7     8   1
     8     8     9   1
     9     9    10   1
    10    10    11   1
    11    11    12   1
    12    12    13   1
    13    13    14   1
    14    14    15   1
    15    15    16   1
    16    16    17   1
    17    17    18   1
    18    18    19   1
    19    19    20   1
    20     4    21   1
    21     4    22   1
    22     5    23   1
    23     5    24   1
    24     6    25   1
    25     6    26   1
    26     7    27   1
    27     7    28   1
    28     8    29   1
    29     8    30   1
    30     9    31   1
    31     9    32   1
    32    10    33   1
    33    10    34   1
    34    11    35   1
    35    11    36   1
    36    12    37   1
    37    12    38   1
    38    13    39   1
    39    13    40   1
    40    14    41   1
    41    14    42   1
    42    15    43   1
    43    15    44   1
    44    16    45   1
    45    16    46   1
    46    17    47   1
    47    17    48   1
    48    18    49   1
    49    18    50   1
    50    19    51   1
    51    19    52   1
    52    20    53   1
    53    20    54   1
    54    20    55   1
@<TRIPOS>SUBSTRUCTURE
     1  STE      1

