@<TRIPOS>MOLECULE
3uex_ligand_061
    55    54
SMALL
GAST_HUCK
****
This file was generated by PARSER (from files_GN.cpp)

@<TRIPOS>ATOM
      1 C1         -3.8147    0.0462   14.1057 C.2         1 STE       0.0348
      2 O1         -5.1620    0.1476   14.0937 O.co2       1 STE      -0.5690
      3 O2         -3.2490   -0.9822   14.7764 O.co2       1 STE      -0.5690
      4 C2         -2.9731    1.1160   13.5390 C.3         1 STE       0.0002
      5 C3         -2.3756    2.0261   14.6453 C.3         1 STE      -0.0414
      6 C4         -1.4399    3.1302   14.0802 C.3         1 STE      -0.0516
      7 C5         -0.7224    3.9860   15.1583 C.3         1 STE      -0.0530
      8 C6          0.3713    3.2262   15.9656 C.3         1 STE      -0.0531
      9 C7          1.0588    4.1035   17.0480 C.3         1 STE      -0.0531
     10 C8          0.2200    4.2525   18.3510 C.3         1 STE      -0.0531
     11 C9          0.6715    5.4363   19.2589 C.3         1 STE      -0.0531
     12 C10         0.7437    5.1527   20.7870 C.3         1 STE      -0.0531
     13 C11        -0.6099    5.1223   21.5634 C.3         1 STE      -0.0531
     14 C12        -1.2916    3.7357   21.7827 C.3         1 STE      -0.0531
     15 C13        -2.4260    3.3210   20.7993 C.3         1 STE      -0.0531
     16 C14        -3.7724    4.0970   20.9193 C.3         1 STE      -0.0531
     17 C15        -4.0209    5.2093   19.8551 C.3         1 STE      -0.0531
     18 C16        -5.2394    6.1220   20.1988 C.3         1 STE      -0.0533
     19 C17        -4.9407    7.4686   20.9198 C.3         1 STE      -0.0559
     20 C18        -4.0132    7.4448   22.1601 C.3         1 STE      -0.0653
     21 H1         -3.5684    1.7161   12.8434 H           1 STE       0.0430
     22 H2         -2.1648    0.6502   12.9720 H           1 STE       0.0430
     23 H3         -1.8178    1.4008   15.3468 H           1 STE       0.0283
     24 H4         -3.1938    2.5031   15.1925 H           1 STE       0.0283
     25 H5         -2.0435    3.8037   13.4641 H           1 STE       0.0266
     26 H6         -0.6837    2.6783   13.4313 H           1 STE       0.0266
     27 H7         -1.4710    4.4154   15.8276 H           1 STE       0.0265
     28 H8         -0.2361    4.8162   14.6388 H           1 STE       0.0265
     29 H9          1.1363    2.8868   15.2649 H           1 STE       0.0265
     30 H10        -0.0495    2.3396   16.4457 H           1 STE       0.0265
     31 H11         1.2875    5.0834   16.6222 H           1 STE       0.0265
     32 H12         2.0133    3.6377   17.3108 H           1 STE       0.0265
     33 H13         0.2814    3.3106   18.8998 H           1 STE       0.0265
     34 H14        -0.8295    4.4113   18.0886 H           1 STE       0.0265
     35 H15         0.0087    6.2880   19.0871 H           1 STE       0.0265
     36 H16         1.6694    5.7607   18.9486 H           1 STE       0.0265
     37 H17         1.3354    5.9736   21.2133 H           1 STE       0.0265
     38 H18         1.3201    4.2421   20.9723 H           1 STE       0.0265
     39 H19        -1.3061    5.8167   21.1000 H           1 STE       0.0265
     40 H20        -0.4031    5.5274   22.5589 H           1 STE       0.0265
     41 H21        -1.7208    3.7186   22.7907 H           1 STE       0.0265
     42 H22        -0.5236    2.9558   21.7723 H           1 STE       0.0265
     43 H23        -2.6377    2.2678   21.0130 H           1 STE       0.0265
     44 H24        -2.0639    3.3546   19.7759 H           1 STE       0.0265
     45 H25        -3.8665    4.5115   21.9245 H           1 STE       0.0265
     46 H26        -4.5867    3.3718   20.8042 H           1 STE       0.0265
     47 H27        -4.2219    4.7063   18.9035 H           1 STE       0.0265
     48 H28        -3.1330    5.8258   19.7050 H           1 STE       0.0265
     49 H29        -5.9667    5.5547   20.7848 H           1 STE       0.0265
     50 H30        -5.7429    6.3747   19.2590 H           1 STE       0.0265
     51 H31        -5.9012    7.8905   21.2312 H           1 STE       0.0263
     52 H32        -4.5087    8.1647   20.1970 H           1 STE       0.0263
     53 H33        -4.0441    8.4158   22.6616 H           1 STE       0.0230
     54 H34        -2.9837    7.2528   21.8563 H           1 STE       0.0230
     55 H35        -4.3229    6.6818   22.8723 H           1 STE       0.0230
@<TRIPOS>BOND
     1     1     2  ar
     2     1     3  ar
     3     1     4   1
     4     4     5   1
     5     5     6   1
     6     6     7   1
     7     7     8   1
     8     8     9   1
     9     9    10   1
    10    10    11   1
    11    11    12   1
    12    12    13   1
    13    13    14   1
    14    14    15   1
    15    15    16   1
    16    16    17   1
    17    17    18   1
    18    18    19   1
    19    19    20   1
    20     4    21   1
    21     4    22   1
    22     5    23   1
    23     5    24   1
    24     6    25   1
    25     6    26   1
    26     7    27   1
    27     7    28   1
    28     8    29   1
    29     8    30   1
    30     9    31   1
    31     9    32   1
    32    10    33   1
    33    10    34   1
    34    11    35   1
    35    11    36   1
    36    12    37   1
    37    12    38   1
    38    13    39   1
    39    13    40   1
    40    14    41   1
    41    14    42   1
    42    15    43   1
    43    15    44   1
    44    16    45   1
    45    16    46   1
    46    17    47   1
    47    17    48   1
    48    18    49   1
    49    18    50   1
    50    19    51   1
    51    19    52   1
    52    20    53   1
    53    20    54   1
    54    20    55   1
@<TRIPOS>SUBSTRUCTURE
     1  STE      1

