@<TRIPOS>MOLECULE
3uex_ligand_068
    55    54
SMALL
GAST_HUCK
****
This file was generated by PARSER (from files_GN.cpp)

@<TRIPOS>ATOM
      1 C1         -9.3256    3.6010   20.8179 C.2         1 STE       0.0348
      2 O1         -9.0818    3.5058   22.1479 O.co2       1 STE      -0.5690
      3 O2        -10.6056    3.4808   20.3902 O.co2       1 STE      -0.5690
      4 C2         -8.1991    3.6195   19.8574 C.3         1 STE       0.0002
      5 C3         -7.3567    4.9229   19.9485 C.3         1 STE      -0.0414
      6 C4         -6.0256    4.8836   19.1297 C.3         1 STE      -0.0516
      7 C5         -5.9408    5.8609   17.9169 C.3         1 STE      -0.0530
      8 C6         -5.6573    7.3498   18.2978 C.3         1 STE      -0.0531
      9 C7         -4.1384    7.7297   18.2878 C.3         1 STE      -0.0531
     10 C8         -3.7881    9.0012   19.1230 C.3         1 STE      -0.0531
     11 C9         -4.3926   10.3607   18.6322 C.3         1 STE      -0.0531
     12 C10        -3.4266   11.2371   17.7742 C.3         1 STE      -0.0531
     13 C11        -2.6085   12.3187   18.5463 C.3         1 STE      -0.0531
     14 C12        -3.4275   13.4138   19.3040 C.3         1 STE      -0.0531
     15 C13        -4.3725   14.3087   18.4416 C.3         1 STE      -0.0531
     16 C14        -3.8001   14.6610   17.0360 C.3         1 STE      -0.0531
     17 C15        -4.1490   16.1031   16.5779 C.3         1 STE      -0.0531
     18 C16        -3.2637   16.5573   15.3795 C.3         1 STE      -0.0533
     19 C17        -3.6046   17.9623   14.8040 C.3         1 STE      -0.0559
     20 C18        -4.1303   18.9783   15.8465 C.3         1 STE      -0.0653
     21 H1         -8.5903    3.5101   18.8403 H           1 STE       0.0430
     22 H2         -7.5634    2.7610   20.0752 H           1 STE       0.0430
     23 H3         -7.0926    5.0828   21.0037 H           1 STE       0.0283
     24 H4         -7.9630    5.7769   19.6254 H           1 STE       0.0283
     25 H5         -5.8620    3.8608   18.7684 H           1 STE       0.0266
     26 H6         -5.1979    5.1040   19.8193 H           1 STE       0.0266
     27 H7         -6.8840    5.8114   17.3622 H           1 STE       0.0265
     28 H8         -5.1506    5.5167   17.2420 H           1 STE       0.0265
     29 H9         -6.0879    7.5524   19.2843 H           1 STE       0.0265
     30 H10        -6.1718    7.9856   17.5686 H           1 STE       0.0265
     31 H11        -3.8003    7.8582   17.2534 H           1 STE       0.0265
     32 H12        -3.5676    6.9004   18.7215 H           1 STE       0.0265
     33 H13        -2.6980    9.0776   19.1630 H           1 STE       0.0265
     34 H14        -4.1329    8.8190   20.1489 H           1 STE       0.0265
     35 H15        -4.7036   10.9396   19.5112 H           1 STE       0.0265
     36 H16        -5.3008   10.1677   18.0453 H           1 STE       0.0265
     37 H17        -4.0193   11.7392   16.9970 H           1 STE       0.0265
     38 H18        -2.7139   10.5815   17.2637 H           1 STE       0.0265
     39 H19        -1.9419   12.8150   17.8308 H           1 STE       0.0265
     40 H20        -1.9672   11.8197   19.2852 H           1 STE       0.0265
     41 H21        -2.7060   14.0708   19.8136 H           1 STE       0.0265
     42 H22        -4.0247   12.9271   20.0878 H           1 STE       0.0265
     43 H23        -4.5340   15.2339   19.0101 H           1 STE       0.0265
     44 H24        -5.3423   13.8092   18.3312 H           1 STE       0.0265
     45 H25        -4.2154   13.9535   16.3089 H           1 STE       0.0265
     46 H26        -2.7069   14.5501   17.0481 H           1 STE       0.0265
     47 H27        -3.9843   16.7892   17.4248 H           1 STE       0.0265
     48 H28        -5.2121   16.1496   16.2853 H           1 STE       0.0265
     49 H29        -3.3682   15.8322   14.5648 H           1 STE       0.0265
     50 H30        -2.2146   16.5581   15.7011 H           1 STE       0.0265
     51 H31        -4.3424   17.8569   14.0012 H           1 STE       0.0263
     52 H32        -2.6925   18.3672   14.3596 H           1 STE       0.0263
     53 H33        -4.0988   19.9866   15.4305 H           1 STE       0.0230
     54 H34        -3.5118   18.9485   16.7511 H           1 STE       0.0230
     55 H35        -5.1677   18.7361   16.1126 H           1 STE       0.0230
@<TRIPOS>BOND
     1     1     2  ar
     2     1     3  ar
     3     1     4   1
     4     4     5   1
     5     5     6   1
     6     6     7   1
     7     7     8   1
     8     8     9   1
     9     9    10   1
    10    10    11   1
    11    11    12   1
    12    12    13   1
    13    13    14   1
    14    14    15   1
    15    15    16   1
    16    16    17   1
    17    17    18   1
    18    18    19   1
    19    19    20   1
    20     4    21   1
    21     4    22   1
    22     5    23   1
    23     5    24   1
    24     6    25   1
    25     6    26   1
    26     7    27   1
    27     7    28   1
    28     8    29   1
    29     8    30   1
    30     9    31   1
    31     9    32   1
    32    10    33   1
    33    10    34   1
    34    11    35   1
    35    11    36   1
    36    12    37   1
    37    12    38   1
    38    13    39   1
    39    13    40   1
    40    14    41   1
    41    14    42   1
    42    15    43   1
    43    15    44   1
    44    16    45   1
    45    16    46   1
    46    17    47   1
    47    17    48   1
    48    18    49   1
    49    18    50   1
    50    19    51   1
    51    19    52   1
    52    20    53   1
    53    20    54   1
    54    20    55   1
@<TRIPOS>SUBSTRUCTURE
     1  STE      1

