@<TRIPOS>MOLECULE
3uex_ligand_052
    55    54
SMALL
GAST_HUCK
****
This file was generated by PARSER (from files_GN.cpp)

@<TRIPOS>ATOM
      1 C1         -4.7559   -0.5065   14.9484 C.2         1 STE       0.0348
      2 O1         -4.0849   -1.6732   15.0646 O.co2       1 STE      -0.5690
      3 O2         -5.2259   -0.1371   13.7371 O.co2       1 STE      -0.5690
      4 C2         -4.8296    0.4163   16.0944 C.3         1 STE       0.0002
      5 C3         -5.3728   -0.2846   17.3699 C.3         1 STE      -0.0414
      6 C4         -5.1298    0.4928   18.6990 C.3         1 STE      -0.0516
      7 C5         -6.1076    1.6646   19.0066 C.3         1 STE      -0.0530
      8 C6         -5.9999    2.9478   18.1376 C.3         1 STE      -0.0531
      9 C7         -4.5493    3.4723   17.9371 C.3         1 STE      -0.0531
     10 C8         -4.4258    4.7070   16.9936 C.3         1 STE      -0.0531
     11 C9         -4.3232    6.0929   17.6881 C.3         1 STE      -0.0531
     12 C10        -5.5686    6.5119   18.5184 C.3         1 STE      -0.0531
     13 C11        -5.5081    7.9511   19.0971 C.3         1 STE      -0.0531
     14 C12        -4.2067    8.3897   19.8309 C.3         1 STE      -0.0531
     15 C13        -4.0535    7.9514   21.3192 C.3         1 STE      -0.0531
     16 C14        -3.1931    6.6915   21.6291 C.3         1 STE      -0.0531
     17 C15        -1.7783    6.6942   20.9844 C.3         1 STE      -0.0531
     18 C16        -0.9019    5.5075   21.4720 C.3         1 STE      -0.0533
     19 C17         0.5940    5.6018   21.0646 C.3         1 STE      -0.0559
     20 C18         0.8410    6.1166   19.6270 C.3         1 STE      -0.0653
     21 H1         -5.4652    1.2585   15.8268 H           1 STE       0.0430
     22 H2         -3.8267    0.8042   16.2856 H           1 STE       0.0430
     23 H3         -4.8709   -1.2548   17.4530 H           1 STE       0.0283
     24 H4         -6.4418   -0.4851   17.2529 H           1 STE       0.0283
     25 H5         -4.0974    0.8459   18.7465 H           1 STE       0.0266
     26 H6         -5.2441   -0.2221   19.5205 H           1 STE       0.0266
     27 H7         -5.9686    1.9546   20.0524 H           1 STE       0.0265
     28 H8         -7.1294    1.2836   18.9185 H           1 STE       0.0265
     29 H9         -6.5914    3.7208   18.6279 H           1 STE       0.0265
     30 H10        -6.4680    2.7666   17.1695 H           1 STE       0.0265
     31 H11        -3.9575    2.6653   17.5008 H           1 STE       0.0265
     32 H12        -4.1079    3.7040   18.9092 H           1 STE       0.0265
     33 H13        -5.2539    4.7193   16.2804 H           1 STE       0.0265
     34 H14        -3.5099    4.5860   16.4057 H           1 STE       0.0265
     35 H15        -4.1587    6.8439   16.9091 H           1 STE       0.0265
     36 H16        -3.4389    6.0926   18.3277 H           1 STE       0.0265
     37 H17        -5.7224    5.8121   19.3395 H           1 STE       0.0265
     38 H18        -6.4513    6.4551   17.8728 H           1 STE       0.0265
     39 H19        -6.3520    8.0787   19.7818 H           1 STE       0.0265
     40 H20        -5.6719    8.6444   18.2674 H           1 STE       0.0265
     41 H21        -4.2121    9.4844   19.8225 H           1 STE       0.0265
     42 H22        -3.3348    8.0912   19.2481 H           1 STE       0.0265
     43 H23        -5.0518    7.7987   21.7384 H           1 STE       0.0265
     44 H24        -3.6078    8.7839   21.8724 H           1 STE       0.0265
     45 H25        -3.7240    5.7891   21.3266 H           1 STE       0.0265
     46 H26        -3.0707    6.6395   22.7159 H           1 STE       0.0265
     47 H27        -1.2792    7.6360   21.2261 H           1 STE       0.0265
     48 H28        -1.8767    6.6331   19.9011 H           1 STE       0.0265
     49 H29        -1.3157    4.5711   21.0884 H           1 STE       0.0265
     50 H30        -0.9486    5.4662   22.5643 H           1 STE       0.0265
     51 H31         1.0335    4.6021   21.1438 H           1 STE       0.0263
     52 H32         1.1220    6.2486   21.7707 H           1 STE       0.0263
     53 H33         1.9070    6.0679   19.4015 H           1 STE       0.0230
     54 H34         0.5205    7.1545   19.5216 H           1 STE       0.0230
     55 H35         0.3033    5.5000   18.9030 H           1 STE       0.0230
@<TRIPOS>BOND
     1     1     2  ar
     2     1     3  ar
     3     1     4   1
     4     4     5   1
     5     5     6   1
     6     6     7   1
     7     7     8   1
     8     8     9   1
     9     9    10   1
    10    10    11   1
    11    11    12   1
    12    12    13   1
    13    13    14   1
    14    14    15   1
    15    15    16   1
    16    16    17   1
    17    17    18   1
    18    18    19   1
    19    19    20   1
    20     4    21   1
    21     4    22   1
    22     5    23   1
    23     5    24   1
    24     6    25   1
    25     6    26   1
    26     7    27   1
    27     7    28   1
    28     8    29   1
    29     8    30   1
    30     9    31   1
    31     9    32   1
    32    10    33   1
    33    10    34   1
    34    11    35   1
    35    11    36   1
    36    12    37   1
    37    12    38   1
    38    13    39   1
    39    13    40   1
    40    14    41   1
    41    14    42   1
    42    15    43   1
    43    15    44   1
    44    16    45   1
    45    16    46   1
    46    17    47   1
    47    17    48   1
    48    18    49   1
    49    18    50   1
    50    19    51   1
    51    19    52   1
    52    20    53   1
    53    20    54   1
    54    20    55   1
@<TRIPOS>SUBSTRUCTURE
     1  STE      1

