@<TRIPOS>MOLECULE
3uex_ligand_039
    55    54
SMALL
GAST_HUCK
****
This file was generated by PARSER (from files_GN.cpp)

@<TRIPOS>ATOM
      1 C1         -4.6615   -0.3512   15.4433 C.2         1 STE       0.0348
      2 O1         -5.4087    0.3081   14.5223 O.co2       1 STE      -0.5690
      3 O2         -5.2437   -0.7397   16.5995 O.co2       1 STE      -0.5690
      4 C2         -3.2549   -0.6886   15.1416 C.3         1 STE       0.0002
      5 C3         -2.2905    0.5281   15.1160 C.3         1 STE      -0.0414
      6 C4         -2.8783    1.8156   14.4707 C.3         1 STE      -0.0516
      7 C5         -1.8313    2.9206   14.1748 C.3         1 STE      -0.0530
      8 C6         -1.1938    3.6135   15.4201 C.3         1 STE      -0.0531
      9 C7         -2.1405    3.9541   16.6093 C.3         1 STE      -0.0531
     10 C8         -3.2630    4.9561   16.2144 C.3         1 STE      -0.0531
     11 C9         -3.7987    5.8447   17.3792 C.3         1 STE      -0.0531
     12 C10        -5.3093    5.6482   17.7048 C.3         1 STE      -0.0531
     13 C11        -6.0302    6.9850   18.0545 C.3         1 STE      -0.0531
     14 C12        -6.0845    7.3362   19.5768 C.3         1 STE      -0.0531
     15 C13        -7.4681    7.0784   20.2308 C.3         1 STE      -0.0531
     16 C14        -7.7686    5.5655   20.4510 C.3         1 STE      -0.0531
     17 C15        -8.9757    5.3490   21.4039 C.3         1 STE      -0.0531
     18 C16        -9.7322    4.0179   21.1443 C.3         1 STE      -0.0533
     19 C17       -11.2741    4.1970   21.0312 C.3         1 STE      -0.0559
     20 C18       -12.0154    4.2903   22.3850 C.3         1 STE      -0.0653
     21 H1         -3.2249   -1.2013   14.1789 H           1 STE       0.0430
     22 H2         -2.8894   -1.3945   15.8953 H           1 STE       0.0430
     23 H3         -1.3913    0.2345   14.5651 H           1 STE       0.0283
     24 H4         -1.9948    0.7689   16.1459 H           1 STE       0.0283
     25 H5         -3.6503    2.2315   15.1138 H           1 STE       0.0266
     26 H6         -3.3552    1.5448   13.5246 H           1 STE       0.0266
     27 H7         -2.3151    3.6881   13.5582 H           1 STE       0.0265
     28 H8         -1.0243    2.4939   13.5675 H           1 STE       0.0265
     29 H9         -0.7418    4.5483   15.0847 H           1 STE       0.0265
     30 H10        -0.3875    2.9860   15.7981 H           1 STE       0.0265
     31 H11        -1.5271    4.3974   17.3997 H           1 STE       0.0265
     32 H12        -2.5882    3.0477   17.0225 H           1 STE       0.0265
     33 H13        -4.0942    4.4004   15.7654 H           1 STE       0.0265
     34 H14        -2.8805    5.6272   15.4412 H           1 STE       0.0265
     35 H15        -3.6363    6.8865   17.0756 H           1 STE       0.0265
     36 H16        -3.2074    5.6810   18.2852 H           1 STE       0.0265
     37 H17        -5.4073    4.9377   18.5335 H           1 STE       0.0265
     38 H18        -5.8158    5.2071   16.8416 H           1 STE       0.0265
     39 H19        -7.0385    6.9312   17.6408 H           1 STE       0.0265
     40 H20        -5.5537    7.8079   17.5105 H           1 STE       0.0265
     41 H21        -5.8529    8.3984   19.6963 H           1 STE       0.0265
     42 H22        -5.3201    6.7807   20.1297 H           1 STE       0.0265
     43 H23        -8.2327    7.5098   19.5746 H           1 STE       0.0265
     44 H24        -7.5062    7.5970   21.1904 H           1 STE       0.0265
     45 H25        -6.8808    5.0675   20.8598 H           1 STE       0.0265
     46 H26        -7.9937    5.1126   19.4807 H           1 STE       0.0265
     47 H27        -9.6644    6.1837   21.2766 H           1 STE       0.0265
     48 H28        -8.6307    5.3747   22.4407 H           1 STE       0.0265
     49 H29        -9.5013    3.2944   21.9308 H           1 STE       0.0265
     50 H30        -9.4022    3.5750   20.1986 H           1 STE       0.0265
     51 H31       -11.6866    3.3493   20.4647 H           1 STE       0.0263
     52 H32       -11.4825    5.1035   20.4517 H           1 STE       0.0263
     53 H33       -13.0826    4.4549   22.1937 H           1 STE       0.0230
     54 H34       -11.6358    5.1258   22.9785 H           1 STE       0.0230
     55 H35       -11.8912    3.3593   22.9490 H           1 STE       0.0230
@<TRIPOS>BOND
     1     1     2  ar
     2     1     3  ar
     3     1     4   1
     4     4     5   1
     5     5     6   1
     6     6     7   1
     7     7     8   1
     8     8     9   1
     9     9    10   1
    10    10    11   1
    11    11    12   1
    12    12    13   1
    13    13    14   1
    14    14    15   1
    15    15    16   1
    16    16    17   1
    17    17    18   1
    18    18    19   1
    19    19    20   1
    20     4    21   1
    21     4    22   1
    22     5    23   1
    23     5    24   1
    24     6    25   1
    25     6    26   1
    26     7    27   1
    27     7    28   1
    28     8    29   1
    29     8    30   1
    30     9    31   1
    31     9    32   1
    32    10    33   1
    33    10    34   1
    34    11    35   1
    35    11    36   1
    36    12    37   1
    37    12    38   1
    38    13    39   1
    39    13    40   1
    40    14    41   1
    41    14    42   1
    42    15    43   1
    43    15    44   1
    44    16    45   1
    45    16    46   1
    46    17    47   1
    47    17    48   1
    48    18    49   1
    49    18    50   1
    50    19    51   1
    51    19    52   1
    52    20    53   1
    53    20    54   1
    54    20    55   1
@<TRIPOS>SUBSTRUCTURE
     1  STE      1

