@<TRIPOS>MOLECULE
3uex_ligand_020
    55    54
SMALL
GAST_HUCK
****
This file was generated by PARSER (from files_GN.cpp)

@<TRIPOS>ATOM
      1 C1         -5.5234    0.7505   15.8456 C.2         1 STE       0.0348
      2 O1         -4.7302    0.1947   16.7929 O.co2       1 STE      -0.5690
      3 O2         -5.3317    0.3735   14.5649 O.co2       1 STE      -0.5690
      4 C2         -6.5224    1.7868   16.1719 C.3         1 STE       0.0002
      5 C3         -7.3286    1.5336   17.4757 C.3         1 STE      -0.0414
      6 C4         -6.5960    1.8440   18.8194 C.3         1 STE      -0.0516
      7 C5         -6.6212    3.3281   19.2852 C.3         1 STE      -0.0530
      8 C6         -5.6319    4.3180   18.5780 C.3         1 STE      -0.0531
      9 C7         -6.3258    5.4272   17.7272 C.3         1 STE      -0.0531
     10 C8         -5.6397    6.8265   17.7290 C.3         1 STE      -0.0531
     11 C9         -5.3134    7.4719   19.1093 C.3         1 STE      -0.0531
     12 C10        -6.3507    7.2864   20.2555 C.3         1 STE      -0.0531
     13 C11        -7.7518    7.9100   19.9917 C.3         1 STE      -0.0531
     14 C12        -8.7309    7.8267   21.2004 C.3         1 STE      -0.0531
     15 C13        -9.1941    6.3747   21.5366 C.3         1 STE      -0.0531
     16 C14       -10.6891    6.2538   21.9551 C.3         1 STE      -0.0531
     17 C15       -11.3251    4.8614   21.6683 C.3         1 STE      -0.0531
     18 C16       -10.4050    3.6024   21.7797 C.3         1 STE      -0.0533
     19 C17       -10.1401    3.0553   23.2135 C.3         1 STE      -0.0559
     20 C18        -9.3184    3.9794   24.1486 C.3         1 STE      -0.0653
     21 H1         -7.2429    1.8417   15.3497 H           1 STE       0.0430
     22 H2         -6.0203    2.7526   16.2222 H           1 STE       0.0430
     23 H3         -7.6422    0.4840   17.4899 H           1 STE       0.0283
     24 H4         -8.2473    2.1298   17.4428 H           1 STE       0.0283
     25 H5         -5.5640    1.4903   18.7884 H           1 STE       0.0266
     26 H6         -7.1012    1.2605   19.5972 H           1 STE       0.0266
     27 H7         -6.3674    3.3276   20.3526 H           1 STE       0.0265
     28 H8         -7.6528    3.6913   19.2292 H           1 STE       0.0265
     29 H9         -4.9297    3.7710   17.9409 H           1 STE       0.0265
     30 H10        -5.0265    4.7935   19.3525 H           1 STE       0.0265
     31 H11        -7.3530    5.5748   18.0646 H           1 STE       0.0265
     32 H12        -6.3845    5.0830   16.6914 H           1 STE       0.0265
     33 H13        -6.2924    7.5150   17.1821 H           1 STE       0.0265
     34 H14        -4.7066    6.7599   17.1597 H           1 STE       0.0265
     35 H15        -5.1463    8.5452   18.9664 H           1 STE       0.0265
     36 H16        -4.3713    7.0555   19.4666 H           1 STE       0.0265
     37 H17        -5.9421    7.7354   21.1662 H           1 STE       0.0265
     38 H18        -6.4584    6.2195   20.4507 H           1 STE       0.0265
     39 H19        -8.2292    7.4321   19.1332 H           1 STE       0.0265
     40 H20        -7.6165    8.9653   19.7385 H           1 STE       0.0265
     41 H21        -9.6166    8.4281   20.9576 H           1 STE       0.0265
     42 H22        -8.2595    8.2579   22.0922 H           1 STE       0.0265
     43 H23        -8.5923    5.9897   22.3662 H           1 STE       0.0265
     44 H24        -9.0191    5.7187   20.6755 H           1 STE       0.0265
     45 H25       -11.2753    6.9973   21.3994 H           1 STE       0.0265
     46 H26       -10.7878    6.4974   23.0168 H           1 STE       0.0265
     47 H27       -11.7032    4.8971   20.6404 H           1 STE       0.0265
     48 H28       -12.2006    4.7337   22.3182 H           1 STE       0.0265
     49 H29        -9.4468    3.7973   21.2694 H           1 STE       0.0265
     50 H30       -10.9106    2.7944   21.2290 H           1 STE       0.0265
     51 H31        -9.5847    2.1173   23.1004 H           1 STE       0.0263
     52 H32       -11.0996    2.8179   23.6940 H           1 STE       0.0263
     53 H33        -8.9954    3.4017   25.0234 H           1 STE       0.0230
     54 H34        -9.9333    4.8161   24.4936 H           1 STE       0.0230
     55 H35        -8.4292    4.3606   23.6263 H           1 STE       0.0230
@<TRIPOS>BOND
     1     1     2  ar
     2     1     3  ar
     3     1     4   1
     4     4     5   1
     5     5     6   1
     6     6     7   1
     7     7     8   1
     8     8     9   1
     9     9    10   1
    10    10    11   1
    11    11    12   1
    12    12    13   1
    13    13    14   1
    14    14    15   1
    15    15    16   1
    16    16    17   1
    17    17    18   1
    18    18    19   1
    19    19    20   1
    20     4    21   1
    21     4    22   1
    22     5    23   1
    23     5    24   1
    24     6    25   1
    25     6    26   1
    26     7    27   1
    27     7    28   1
    28     8    29   1
    29     8    30   1
    30     9    31   1
    31     9    32   1
    32    10    33   1
    33    10    34   1
    34    11    35   1
    35    11    36   1
    36    12    37   1
    37    12    38   1
    38    13    39   1
    39    13    40   1
    40    14    41   1
    41    14    42   1
    42    15    43   1
    43    15    44   1
    44    16    45   1
    45    16    46   1
    46    17    47   1
    47    17    48   1
    48    18    49   1
    49    18    50   1
    50    19    51   1
    51    19    52   1
    52    20    53   1
    53    20    54   1
    54    20    55   1
@<TRIPOS>SUBSTRUCTURE
     1  STE      1

