@<TRIPOS>MOLECULE
3uex_ligand_060
    55    54
SMALL
GAST_HUCK
****
This file was generated by PARSER (from files_GN.cpp)

@<TRIPOS>ATOM
      1 C1         -3.9873   -0.5461   14.5374 C.2         1 STE       0.0348
      2 O1         -3.1402   -1.1337   13.6471 O.co2       1 STE      -0.5690
      3 O2         -5.0021    0.2126   14.0804 O.co2       1 STE      -0.5690
      4 C2         -3.8949   -0.8865   15.9717 C.3         1 STE       0.0002
      5 C3         -3.9821    0.3446   16.9291 C.3         1 STE      -0.0414
      6 C4         -5.2555    1.2330   16.7636 C.3         1 STE      -0.0516
      7 C5         -4.9560    2.6865   16.2822 C.3         1 STE      -0.0530
      8 C6         -4.8027    3.7174   17.4426 C.3         1 STE      -0.0531
      9 C7         -3.5263    4.6093   17.3544 C.3         1 STE      -0.0531
     10 C8         -3.5624    5.8325   18.3260 C.3         1 STE      -0.0531
     11 C9         -4.3738    7.0311   17.7556 C.3         1 STE      -0.0531
     12 C10        -4.8760    8.0368   18.8369 C.3         1 STE      -0.0531
     13 C11        -6.3923    8.3788   18.7260 C.3         1 STE      -0.0531
     14 C12        -7.3515    7.4645   19.5495 C.3         1 STE      -0.0531
     15 C13        -7.1915    5.9294   19.3464 C.3         1 STE      -0.0531
     16 C14        -8.0536    5.0777   20.3392 C.3         1 STE      -0.0531
     17 C15        -7.2359    4.2192   21.3535 C.3         1 STE      -0.0531
     18 C16        -6.9944    2.7548   20.8928 C.3         1 STE      -0.0533
     19 C17        -6.2114    1.8685   21.9054 C.3         1 STE      -0.0559
     20 C18        -5.1796    2.6330   22.7705 C.3         1 STE      -0.0653
     21 H1         -2.9506   -1.3984   16.1699 H           1 STE       0.0430
     22 H2         -4.7010   -1.5843   16.2213 H           1 STE       0.0430
     23 H3         -3.0687    0.9456   16.8181 H           1 STE       0.0283
     24 H4         -3.9734   -0.0420   17.9545 H           1 STE       0.0283
     25 H5         -5.7996    1.2824   17.7144 H           1 STE       0.0266
     26 H6         -5.9218    0.7664   16.0306 H           1 STE       0.0266
     27 H7         -5.7878    3.0255   15.6501 H           1 STE       0.0265
     28 H8         -4.0564    2.6970   15.6535 H           1 STE       0.0265
     29 H9         -4.7804    3.1990   18.4071 H           1 STE       0.0265
     30 H10        -5.6957    4.3509   17.4408 H           1 STE       0.0265
     31 H11        -3.3801    4.9584   16.3284 H           1 STE       0.0265
     32 H12        -2.6618    3.9860   17.6087 H           1 STE       0.0265
     33 H13        -2.5350    6.1777   18.5117 H           1 STE       0.0265
     34 H14        -4.0038    5.5323   19.2916 H           1 STE       0.0265
     35 H15        -5.2209    6.6368   17.1828 H           1 STE       0.0265
     36 H16        -3.7337    7.5666   17.0451 H           1 STE       0.0265
     37 H17        -4.2973    8.9616   18.7232 H           1 STE       0.0265
     38 H18        -4.6687    7.6690   19.8431 H           1 STE       0.0265
     39 H19        -6.6925    8.3928   17.6740 H           1 STE       0.0265
     40 H20        -6.5244    9.4038   19.0984 H           1 STE       0.0265
     41 H21        -8.3670    7.7493   19.2630 H           1 STE       0.0265
     42 H22        -7.2244    7.6988   20.6103 H           1 STE       0.0265
     43 H23        -6.1302    5.6662   19.4560 H           1 STE       0.0265
     44 H24        -7.4938    5.6892   18.3171 H           1 STE       0.0265
     45 H25        -8.7046    4.4166   19.7635 H           1 STE       0.0265
     46 H26        -8.7116    5.7383   20.9135 H           1 STE       0.0265
     47 H27        -7.7823    4.1988   22.3077 H           1 STE       0.0265
     48 H28        -6.2721    4.7015   21.5403 H           1 STE       0.0265
     49 H29        -6.4636    2.7657   19.9372 H           1 STE       0.0265
     50 H30        -7.9683    2.2782   20.7304 H           1 STE       0.0265
     51 H31        -5.6771    1.0971   21.3377 H           1 STE       0.0263
     52 H32        -6.9213    1.3588   22.5666 H           1 STE       0.0263
     53 H33        -4.5599    1.9172   23.3265 H           1 STE       0.0230
     54 H34        -5.6957    3.2741   23.4911 H           1 STE       0.0230
     55 H35        -4.5260    3.2486   22.1373 H           1 STE       0.0230
@<TRIPOS>BOND
     1     1     2  ar
     2     1     3  ar
     3     1     4   1
     4     4     5   1
     5     5     6   1
     6     6     7   1
     7     7     8   1
     8     8     9   1
     9     9    10   1
    10    10    11   1
    11    11    12   1
    12    12    13   1
    13    13    14   1
    14    14    15   1
    15    15    16   1
    16    16    17   1
    17    17    18   1
    18    18    19   1
    19    19    20   1
    20     4    21   1
    21     4    22   1
    22     5    23   1
    23     5    24   1
    24     6    25   1
    25     6    26   1
    26     7    27   1
    27     7    28   1
    28     8    29   1
    29     8    30   1
    30     9    31   1
    31     9    32   1
    32    10    33   1
    33    10    34   1
    34    11    35   1
    35    11    36   1
    36    12    37   1
    37    12    38   1
    38    13    39   1
    39    13    40   1
    40    14    41   1
    41    14    42   1
    42    15    43   1
    43    15    44   1
    44    16    45   1
    45    16    46   1
    46    17    47   1
    47    17    48   1
    48    18    49   1
    49    18    50   1
    50    19    51   1
    51    19    52   1
    52    20    53   1
    53    20    54   1
    54    20    55   1
@<TRIPOS>SUBSTRUCTURE
     1  STE      1

