@<TRIPOS>MOLECULE
3uex_ligand_009
    55    54
SMALL
GAST_HUCK
****
This file was generated by PARSER (from files_GN.cpp)

@<TRIPOS>ATOM
      1 C1        -11.3927    4.0210   21.8969 C.2         1 STE       0.0348
      2 O1        -11.4980    3.3229   23.0501 O.co2       1 STE      -0.5690
      3 O2        -11.1955    3.3584   20.7315 O.co2       1 STE      -0.5690
      4 C2        -11.6346    5.4789   21.8943 C.3         1 STE       0.0002
      5 C3        -10.5063    6.3102   22.5811 C.3         1 STE      -0.0414
      6 C4         -9.3360    6.7610   21.6533 C.3         1 STE      -0.0516
      7 C5         -8.5768    5.5891   20.9581 C.3         1 STE      -0.0530
      8 C6         -7.4091    5.9667   19.9926 C.3         1 STE      -0.0531
      9 C7         -7.2733    7.4684   19.5723 C.3         1 STE      -0.0531
     10 C8         -6.1931    7.7342   18.4727 C.3         1 STE      -0.0531
     11 C9         -4.9199    8.5090   18.9390 C.3         1 STE      -0.0531
     12 C10        -4.2237    7.8770   20.1759 C.3         1 STE      -0.0531
     13 C11        -3.0201    8.6771   20.7692 C.3         1 STE      -0.0531
     14 C12        -1.6013    8.3624   20.1926 C.3         1 STE      -0.0531
     15 C13        -1.1221    9.1652   18.9451 C.3         1 STE      -0.0531
     16 C14        -0.7130   10.6489   19.2136 C.3         1 STE      -0.0531
     17 C15        -1.7364   11.6974   18.6895 C.3         1 STE      -0.0531
     18 C16        -1.5306   13.1315   19.2880 C.3         1 STE      -0.0533
     19 C17        -2.5059   13.5249   20.4379 C.3         1 STE      -0.0559
     20 C18        -2.3614   12.7000   21.7419 C.3         1 STE      -0.0653
     21 H1        -12.5856    5.6464   22.4131 H           1 STE       0.0430
     22 H2        -11.7654    5.8204   20.8621 H           1 STE       0.0430
     23 H3        -10.1033    5.7578   23.4377 H           1 STE       0.0283
     24 H4        -10.9714    7.2198   22.9836 H           1 STE       0.0283
     25 H5         -8.6266    7.3364   22.2595 H           1 STE       0.0266
     26 H6         -9.7351    7.4360   20.8893 H           1 STE       0.0266
     27 H7         -9.3113    5.0032   20.4018 H           1 STE       0.0265
     28 H8         -8.1709    4.9343   21.7393 H           1 STE       0.0265
     29 H9         -7.5417    5.3626   19.0851 H           1 STE       0.0265
     30 H10        -6.4689    5.6435   20.4524 H           1 STE       0.0265
     31 H11        -7.0128    8.0552   20.4674 H           1 STE       0.0265
     32 H12        -8.2517    7.8098   19.1982 H           1 STE       0.0265
     33 H13        -6.6611    8.3387   17.6860 H           1 STE       0.0265
     34 H14        -5.8863    6.7929   18.0008 H           1 STE       0.0265
     35 H15        -5.2036    9.5424   19.1701 H           1 STE       0.0265
     36 H16        -4.2214    8.5389   18.1003 H           1 STE       0.0265
     37 H17        -3.8987    6.8551   19.9258 H           1 STE       0.0265
     38 H18        -4.9942    7.8164   20.9600 H           1 STE       0.0265
     39 H19        -2.9754    8.4118   21.8352 H           1 STE       0.0265
     40 H20        -3.2220    9.7486   20.7173 H           1 STE       0.0265
     41 H21        -1.5439    7.2919   19.9577 H           1 STE       0.0265
     42 H22        -0.8720    8.5433   20.9944 H           1 STE       0.0265
     43 H23        -1.8717    9.1030   18.1539 H           1 STE       0.0265
     44 H24        -0.2344    8.6429   18.5702 H           1 STE       0.0265
     45 H25         0.2377   10.8442   18.7020 H           1 STE       0.0265
     46 H26        -0.5357   10.7977   20.2816 H           1 STE       0.0265
     47 H27        -2.7573   11.3555   18.8911 H           1 STE       0.0265
     48 H28        -1.6205   11.7598   17.6015 H           1 STE       0.0265
     49 H29        -1.6806   13.8568   18.4758 H           1 STE       0.0265
     50 H30        -0.4936   13.2533   19.6349 H           1 STE       0.0265
     51 H31        -3.5365   13.4315   20.0661 H           1 STE       0.0263
     52 H32        -2.3307   14.5848   20.6715 H           1 STE       0.0263
     53 H33        -2.9986   13.1440   22.5154 H           1 STE       0.0230
     54 H34        -1.3186   12.7031   22.0847 H           1 STE       0.0230
     55 H35        -2.6882   11.6683   21.5564 H           1 STE       0.0230
@<TRIPOS>BOND
     1     1     2  ar
     2     1     3  ar
     3     1     4   1
     4     4     5   1
     5     5     6   1
     6     6     7   1
     7     7     8   1
     8     8     9   1
     9     9    10   1
    10    10    11   1
    11    11    12   1
    12    12    13   1
    13    13    14   1
    14    14    15   1
    15    15    16   1
    16    16    17   1
    17    17    18   1
    18    18    19   1
    19    19    20   1
    20     4    21   1
    21     4    22   1
    22     5    23   1
    23     5    24   1
    24     6    25   1
    25     6    26   1
    26     7    27   1
    27     7    28   1
    28     8    29   1
    29     8    30   1
    30     9    31   1
    31     9    32   1
    32    10    33   1
    33    10    34   1
    34    11    35   1
    35    11    36   1
    36    12    37   1
    37    12    38   1
    38    13    39   1
    39    13    40   1
    40    14    41   1
    41    14    42   1
    42    15    43   1
    43    15    44   1
    44    16    45   1
    45    16    46   1
    46    17    47   1
    47    17    48   1
    48    18    49   1
    49    18    50   1
    50    19    51   1
    51    19    52   1
    52    20    53   1
    53    20    54   1
    54    20    55   1
@<TRIPOS>SUBSTRUCTURE
     1  STE      1

