@<TRIPOS>MOLECULE
3uex_ligand_006
    55    54
SMALL
GAST_HUCK
****
This file was generated by PARSER (from files_GN.cpp)

@<TRIPOS>ATOM
      1 C1         -5.3040    0.8220   15.7297 C.2         1 STE       0.0348
      2 O1         -4.4626    0.3016   16.6541 O.co2       1 STE      -0.5690
      3 O2         -5.2320    0.3577   14.4608 O.co2       1 STE      -0.5690
      4 C2         -6.3379    1.8025   16.1124 C.3         1 STE       0.0002
      5 C3         -7.0170    1.4874   17.4881 C.3         1 STE      -0.0414
      6 C4         -6.6958    2.5431   18.5875 C.3         1 STE      -0.0516
      7 C5         -7.6386    3.7848   18.5488 C.3         1 STE      -0.0530
      8 C6         -7.0033    5.0936   19.1067 C.3         1 STE      -0.0531
      9 C7         -6.2253    5.8936   18.0202 C.3         1 STE      -0.0531
     10 C8         -5.6088    7.2335   18.5106 C.3         1 STE      -0.0531
     11 C9         -6.6365    8.2773   19.0742 C.3         1 STE      -0.0531
     12 C10        -6.6710    9.6457   18.3318 C.3         1 STE      -0.0531
     13 C11        -5.4643   10.6246   18.4683 C.3         1 STE      -0.0531
     14 C12        -4.0935   10.0722   18.9802 C.3         1 STE      -0.0531
     15 C13        -3.1037   11.2153   19.3702 C.3         1 STE      -0.0531
     16 C14        -2.7029   12.1672   18.1969 C.3         1 STE      -0.0531
     17 C15        -1.8301   13.3853   18.6129 C.3         1 STE      -0.0531
     18 C16        -2.5349   14.3828   19.5907 C.3         1 STE      -0.0533
     19 C17        -1.9693   15.8291   19.5471 C.3         1 STE      -0.0559
     20 C18        -2.7672   16.7619   18.5980 C.3         1 STE      -0.0653
     21 H1         -7.1073    1.8333   15.3362 H           1 STE       0.0430
     22 H2         -5.8646    2.7892   16.1215 H           1 STE       0.0430
     23 H3         -6.7025    0.5024   17.8523 H           1 STE       0.0283
     24 H4         -8.1027    1.4307   17.3509 H           1 STE       0.0283
     25 H5         -5.6481    2.8463   18.4899 H           1 STE       0.0266
     26 H6         -6.7948    2.0662   19.5682 H           1 STE       0.0266
     27 H7         -8.5274    3.5475   19.1429 H           1 STE       0.0265
     28 H8         -7.9898    3.9628   17.5253 H           1 STE       0.0265
     29 H9         -6.3352    4.8589   19.9437 H           1 STE       0.0265
     30 H10        -7.8150    5.7210   19.4924 H           1 STE       0.0265
     31 H11        -6.8900    6.1099   17.1816 H           1 STE       0.0265
     32 H12        -5.4158    5.2642   17.6356 H           1 STE       0.0265
     33 H13        -5.0708    7.6618   17.6573 H           1 STE       0.0265
     34 H14        -4.8617    7.0113   19.2783 H           1 STE       0.0265
     35 H15        -6.4401    8.4459   20.1380 H           1 STE       0.0265
     36 H16        -7.6518    7.8616   18.9928 H           1 STE       0.0265
     37 H17        -7.5487   10.1878   18.7192 H           1 STE       0.0265
     38 H18        -6.8786    9.4585   17.2714 H           1 STE       0.0265
     39 H19        -5.7652   11.4452   19.1350 H           1 STE       0.0265
     40 H20        -5.3073   11.0577   17.4716 H           1 STE       0.0265
     41 H21        -3.6342    9.4272   18.2131 H           1 STE       0.0265
     42 H22        -4.2807    9.4811   19.8920 H           1 STE       0.0265
     43 H23        -2.1869   10.7565   19.7630 H           1 STE       0.0265
     44 H24        -3.5577   11.7984   20.1817 H           1 STE       0.0265
     45 H25        -3.5984   12.5573   17.7046 H           1 STE       0.0265
     46 H26        -2.1443   11.5813   17.4535 H           1 STE       0.0265
     47 H27        -1.5564   13.9122   17.6922 H           1 STE       0.0265
     48 H28        -0.9071   13.0248   19.0844 H           1 STE       0.0265
     49 H29        -2.4120   13.9993   20.6113 H           1 STE       0.0265
     50 H30        -3.6103   14.4150   19.3767 H           1 STE       0.0265
     51 H31        -0.9193   15.8179   19.2398 H           1 STE       0.0263
     52 H32        -2.0145   16.2619   20.5546 H           1 STE       0.0263
     53 H33        -2.2830   17.7396   18.5421 H           1 STE       0.0230
     54 H34        -3.7849   16.8942   18.9761 H           1 STE       0.0230
     55 H35        -2.8136   16.3354   17.5933 H           1 STE       0.0230
@<TRIPOS>BOND
     1     1     2  ar
     2     1     3  ar
     3     1     4   1
     4     4     5   1
     5     5     6   1
     6     6     7   1
     7     7     8   1
     8     8     9   1
     9     9    10   1
    10    10    11   1
    11    11    12   1
    12    12    13   1
    13    13    14   1
    14    14    15   1
    15    15    16   1
    16    16    17   1
    17    17    18   1
    18    18    19   1
    19    19    20   1
    20     4    21   1
    21     4    22   1
    22     5    23   1
    23     5    24   1
    24     6    25   1
    25     6    26   1
    26     7    27   1
    27     7    28   1
    28     8    29   1
    29     8    30   1
    30     9    31   1
    31     9    32   1
    32    10    33   1
    33    10    34   1
    34    11    35   1
    35    11    36   1
    36    12    37   1
    37    12    38   1
    38    13    39   1
    39    13    40   1
    40    14    41   1
    41    14    42   1
    42    15    43   1
    43    15    44   1
    44    16    45   1
    45    16    46   1
    46    17    47   1
    47    17    48   1
    48    18    49   1
    49    18    50   1
    50    19    51   1
    51    19    52   1
    52    20    53   1
    53    20    54   1
    54    20    55   1
@<TRIPOS>SUBSTRUCTURE
     1  STE      1

