@<TRIPOS>MOLECULE
3uex_ligand_053
    55    54
SMALL
GAST_HUCK
****
This file was generated by PARSER (from files_GN.cpp)

@<TRIPOS>ATOM
      1 C1        -10.6392    1.6165   19.6451 C.2         1 STE       0.0348
      2 O1        -11.5516    2.6230   19.7116 O.co2       1 STE      -0.5690
      3 O2        -10.9435    0.4173   20.1879 O.co2       1 STE      -0.5690
      4 C2         -9.3443    1.8391   18.9719 C.3         1 STE       0.0002
      5 C3         -8.4598    2.8647   19.7432 C.3         1 STE      -0.0414
      6 C4         -7.1306    3.2486   19.0098 C.3         1 STE      -0.0516
      7 C5         -6.9056    4.7740   18.7860 C.3         1 STE      -0.0530
      8 C6         -7.1216    5.6640   20.0456 C.3         1 STE      -0.0531
      9 C7         -6.9210    7.1838   19.7867 C.3         1 STE      -0.0531
     10 C8         -5.4509    7.6783   19.5883 C.3         1 STE      -0.0531
     11 C9         -4.5691    7.7050   20.8827 C.3         1 STE      -0.0531
     12 C10        -3.5821    6.5168   21.0623 C.3         1 STE      -0.0531
     13 C11        -2.4285    6.3832   20.0222 C.3         1 STE      -0.0531
     14 C12        -1.5764    7.6637   19.7568 C.3         1 STE      -0.0531
     15 C13        -2.1864    8.6583   18.7138 C.3         1 STE      -0.0531
     16 C14        -1.1161    9.5159   17.9594 C.3         1 STE      -0.0531
     17 C15        -0.6902   10.8565   18.6219 C.3         1 STE      -0.0531
     18 C16        -0.8296   10.9538   20.1761 C.3         1 STE      -0.0533
     19 C17        -0.1233   12.2129   20.7582 C.3         1 STE      -0.0559
     20 C18         0.2942   12.0039   22.2406 C.3         1 STE      -0.0653
     21 H1         -9.5416    2.2196   17.9663 H           1 STE       0.0430
     22 H2         -8.8014    0.8910   18.8926 H           1 STE       0.0430
     23 H3         -8.2064    2.4494   20.7280 H           1 STE       0.0283
     24 H4         -9.0536    3.7784   19.9177 H           1 STE       0.0283
     25 H5         -7.0995    2.7711   18.0256 H           1 STE       0.0266
     26 H6         -6.2846    2.8509   19.5837 H           1 STE       0.0266
     27 H7         -7.5870    5.1032   17.9932 H           1 STE       0.0265
     28 H8         -5.8820    4.9089   18.4161 H           1 STE       0.0265
     29 H9         -6.4602    5.3238   20.8499 H           1 STE       0.0265
     30 H10        -8.1514    5.5318   20.3842 H           1 STE       0.0265
     31 H11        -7.3436    7.7357   20.6324 H           1 STE       0.0265
     32 H12        -7.4977    7.4681   18.8981 H           1 STE       0.0265
     33 H13        -5.5206    8.7150   19.2176 H           1 STE       0.0265
     34 H14        -4.9755    7.0946   18.7886 H           1 STE       0.0265
     35 H15        -5.2274    7.7278   21.7623 H           1 STE       0.0265
     36 H16        -3.9847    8.6384   20.8888 H           1 STE       0.0265
     37 H17        -4.1413    5.5770   21.0601 H           1 STE       0.0265
     38 H18        -3.1283    6.6217   22.0583 H           1 STE       0.0265
     39 H19        -2.8229    5.9859   19.0798 H           1 STE       0.0265
     40 H20        -1.7528    5.6095   20.4212 H           1 STE       0.0265
     41 H21        -0.6004    7.3182   19.3873 H           1 STE       0.0265
     42 H22        -1.4004    8.1807   20.7060 H           1 STE       0.0265
     43 H23        -2.9119    9.3128   19.2112 H           1 STE       0.0265
     44 H24        -2.7360    8.0776   17.9552 H           1 STE       0.0265
     45 H25        -1.5312    9.7717   16.9735 H           1 STE       0.0265
     46 H26        -0.2225    8.9170   17.7738 H           1 STE       0.0265
     47 H27        -1.2759   11.6755   18.1739 H           1 STE       0.0265
     48 H28         0.3594   11.0184   18.3625 H           1 STE       0.0265
     49 H29        -0.4009   10.0507   20.6317 H           1 STE       0.0265
     50 H30        -1.9011   10.9993   20.4299 H           1 STE       0.0265
     51 H31        -0.8122   13.0674   20.6950 H           1 STE       0.0263
     52 H32         0.7732   12.4395   20.1696 H           1 STE       0.0263
     53 H33         0.7996   12.9032   22.6045 H           1 STE       0.0230
     54 H34         0.9841   11.1503   22.3129 H           1 STE       0.0230
     55 H35        -0.5919   11.8262   22.8635 H           1 STE       0.0230
@<TRIPOS>BOND
     1     1     2  ar
     2     1     3  ar
     3     1     4   1
     4     4     5   1
     5     5     6   1
     6     6     7   1
     7     7     8   1
     8     8     9   1
     9     9    10   1
    10    10    11   1
    11    11    12   1
    12    12    13   1
    13    13    14   1
    14    14    15   1
    15    15    16   1
    16    16    17   1
    17    17    18   1
    18    18    19   1
    19    19    20   1
    20     4    21   1
    21     4    22   1
    22     5    23   1
    23     5    24   1
    24     6    25   1
    25     6    26   1
    26     7    27   1
    27     7    28   1
    28     8    29   1
    29     8    30   1
    30     9    31   1
    31     9    32   1
    32    10    33   1
    33    10    34   1
    34    11    35   1
    35    11    36   1
    36    12    37   1
    37    12    38   1
    38    13    39   1
    39    13    40   1
    40    14    41   1
    41    14    42   1
    42    15    43   1
    43    15    44   1
    44    16    45   1
    45    16    46   1
    46    17    47   1
    47    17    48   1
    48    18    49   1
    49    18    50   1
    50    19    51   1
    51    19    52   1
    52    20    53   1
    53    20    54   1
    54    20    55   1
@<TRIPOS>SUBSTRUCTURE
     1  STE      1

