@<TRIPOS>MOLECULE
3uex_ligand_074
    55    54
SMALL
GAST_HUCK
****
This file was generated by PARSER (from files_GN.cpp)

@<TRIPOS>ATOM
      1 C1         -0.6912    4.6174   12.3560 C.2         1 STE       0.0348
      2 O1         -0.6258    5.9250   12.0430 O.co2       1 STE      -0.5690
      3 O2          0.4012    3.8401   12.1383 O.co2       1 STE      -0.5690
      4 C2         -1.9652    4.0125   12.7688 C.3         1 STE       0.0002
      5 C3         -1.9408    3.4282   14.2068 C.3         1 STE      -0.0414
      6 C4         -2.1366    4.4799   15.3530 C.3         1 STE      -0.0516
      7 C5         -3.4231    4.2721   16.2096 C.3         1 STE      -0.0530
      8 C6         -3.4129    4.9641   17.5998 C.3         1 STE      -0.0531
      9 C7         -3.8680    6.4527   17.6272 C.3         1 STE      -0.0531
     10 C8         -3.1678    7.3157   18.7301 C.3         1 STE      -0.0531
     11 C9         -4.0159    7.5940   20.0049 C.3         1 STE      -0.0531
     12 C10        -3.1795    7.7099   21.3217 C.3         1 STE      -0.0531
     13 C11        -3.2589    6.5028   22.3022 C.3         1 STE      -0.0531
     14 C12        -2.6472    5.1509   21.8031 C.3         1 STE      -0.0531
     15 C13        -3.6093    4.1993   21.0354 C.3         1 STE      -0.0531
     16 C14        -4.7353    3.5482   21.8948 C.3         1 STE      -0.0531
     17 C15        -5.8592    2.8318   21.0730 C.3         1 STE      -0.0531
     18 C16        -7.3121    3.3963   21.2518 C.3         1 STE      -0.0533
     19 C17        -7.8913    4.1862   20.0407 C.3         1 STE      -0.0559
     20 C18        -7.0809    5.4430   19.6450 C.3         1 STE      -0.0653
     21 H1         -2.2167    3.2137   12.0638 H           1 STE       0.0430
     22 H2         -2.7612    4.7632   12.7098 H           1 STE       0.0430
     23 H3         -0.9892    2.9061   14.3568 H           1 STE       0.0283
     24 H4         -2.7222    2.6641   14.2706 H           1 STE       0.0283
     25 H5         -2.1557    5.4882   14.9345 H           1 STE       0.0266
     26 H6         -1.2664    4.4283   16.0170 H           1 STE       0.0266
     27 H7         -3.5383    3.1981   16.4005 H           1 STE       0.0265
     28 H8         -4.3014    4.6075   15.6501 H           1 STE       0.0265
     29 H9         -2.4025    4.8664   18.0093 H           1 STE       0.0265
     30 H10        -4.0854    4.4004   18.2425 H           1 STE       0.0265
     31 H11        -4.9589    6.4970   17.7563 H           1 STE       0.0265
     32 H12        -3.6529    6.9124   16.6569 H           1 STE       0.0265
     33 H13        -2.9149    8.2927   18.2935 H           1 STE       0.0265
     34 H14        -2.2133    6.8635   19.0165 H           1 STE       0.0265
     35 H15        -4.7817    6.8308   20.1269 H           1 STE       0.0265
     36 H16        -4.5428    8.5435   19.8466 H           1 STE       0.0265
     37 H17        -3.5408    8.5870   21.8761 H           1 STE       0.0265
     38 H18        -2.1237    7.9119   21.0881 H           1 STE       0.0265
     39 H19        -4.3005    6.3572   22.6083 H           1 STE       0.0265
     40 H20        -2.6985    6.7896   23.1977 H           1 STE       0.0265
     41 H21        -2.2658    4.5992   22.6831 H           1 STE       0.0265
     42 H22        -1.7731    5.3728   21.1635 H           1 STE       0.0265
     43 H23        -3.0125    3.3894   20.5771 H           1 STE       0.0265
     44 H24        -4.0731    4.7717   20.2356 H           1 STE       0.0265
     45 H25        -5.1651    4.3107   22.5587 H           1 STE       0.0265
     46 H26        -4.2471    2.7904   22.5399 H           1 STE       0.0265
     47 H27        -5.8671    1.7792   21.3827 H           1 STE       0.0265
     48 H28        -5.6073    2.8228   20.0046 H           1 STE       0.0265
     49 H29        -7.3617    4.0251   22.1490 H           1 STE       0.0265
     50 H30        -7.9779    2.5439   21.4287 H           1 STE       0.0265
     51 H31        -8.9114    4.5003   20.3029 H           1 STE       0.0263
     52 H32        -7.9635    3.5078   19.1764 H           1 STE       0.0263
     53 H33        -7.6310    6.0040   18.8722 H           1 STE       0.0230
     54 H34        -6.1146    5.1317   19.2338 H           1 STE       0.0230
     55 H35        -6.9253    6.0858   20.5275 H           1 STE       0.0230
@<TRIPOS>BOND
     1     1     2  ar
     2     1     3  ar
     3     1     4   1
     4     4     5   1
     5     5     6   1
     6     6     7   1
     7     7     8   1
     8     8     9   1
     9     9    10   1
    10    10    11   1
    11    11    12   1
    12    12    13   1
    13    13    14   1
    14    14    15   1
    15    15    16   1
    16    16    17   1
    17    17    18   1
    18    18    19   1
    19    19    20   1
    20     4    21   1
    21     4    22   1
    22     5    23   1
    23     5    24   1
    24     6    25   1
    25     6    26   1
    26     7    27   1
    27     7    28   1
    28     8    29   1
    29     8    30   1
    30     9    31   1
    31     9    32   1
    32    10    33   1
    33    10    34   1
    34    11    35   1
    35    11    36   1
    36    12    37   1
    37    12    38   1
    38    13    39   1
    39    13    40   1
    40    14    41   1
    41    14    42   1
    42    15    43   1
    43    15    44   1
    44    16    45   1
    45    16    46   1
    46    17    47   1
    47    17    48   1
    48    18    49   1
    49    18    50   1
    50    19    51   1
    51    19    52   1
    52    20    53   1
    53    20    54   1
    54    20    55   1
@<TRIPOS>SUBSTRUCTURE
     1  STE      1

