@<TRIPOS>MOLECULE
3uex_ligand_032
    55    54
SMALL
GAST_HUCK
****
This file was generated by PARSER (from files_GN.cpp)

@<TRIPOS>ATOM
      1 C1         -5.6151    1.3376   15.9616 C.2         1 STE       0.0348
      2 O1         -4.8198    1.0501   17.0179 O.co2       1 STE      -0.5690
      3 O2         -5.4367    0.6333   14.8210 O.co2       1 STE      -0.5690
      4 C2         -6.6594    2.3785   16.0478 C.3         1 STE       0.0002
      5 C3         -7.6085    2.2168   17.2746 C.3         1 STE      -0.0414
      6 C4         -7.0369    2.7780   18.6062 C.3         1 STE      -0.0516
      7 C5         -7.3862    4.2817   18.8437 C.3         1 STE      -0.0530
      8 C6         -6.2978    5.1064   19.5889 C.3         1 STE      -0.0531
      9 C7         -5.0332    5.4525   18.7379 C.3         1 STE      -0.0531
     10 C8         -3.8676    4.4216   18.7264 C.3         1 STE      -0.0531
     11 C9         -3.4107    3.7893   20.0792 C.3         1 STE      -0.0531
     12 C10        -3.4156    4.7020   21.3512 C.3         1 STE      -0.0531
     13 C11        -2.0633    4.9700   22.0694 C.3         1 STE      -0.0531
     14 C12        -0.8510    5.4194   21.1993 C.3         1 STE      -0.0531
     15 C13        -1.1007    6.4045   20.0192 C.3         1 STE      -0.0531
     16 C14        -0.8786    7.9257   20.2636 C.3         1 STE      -0.0531
     17 C15        -2.0724    8.8076   20.7390 C.3         1 STE      -0.0531
     18 C16        -3.3338    8.9634   19.8395 C.3         1 STE      -0.0533
     19 C17        -3.2209    8.6210   18.3239 C.3         1 STE      -0.0559
     20 C18        -2.4622    9.6789   17.4718 C.3         1 STE      -0.0653
     21 H1         -7.2682    2.3485   15.1415 H           1 STE       0.0430
     22 H2         -6.1696    3.3551   16.0687 H           1 STE       0.0430
     23 H3         -7.8545    1.1585   17.4083 H           1 STE       0.0283
     24 H4         -8.5477    2.7407   17.0689 H           1 STE       0.0283
     25 H5         -5.9561    2.6243   18.6190 H           1 STE       0.0266
     26 H6         -7.4524    2.1963   19.4377 H           1 STE       0.0266
     27 H7         -8.3068    4.3240   19.4386 H           1 STE       0.0265
     28 H8         -7.6139    4.7925   17.9021 H           1 STE       0.0265
     29 H9         -6.0241    4.5890   20.5130 H           1 STE       0.0265
     30 H10        -6.7665    6.0515   19.8896 H           1 STE       0.0265
     31 H11        -4.6296    6.3998   19.1076 H           1 STE       0.0265
     32 H12        -5.3241    5.6563   17.7039 H           1 STE       0.0265
     33 H13        -3.0044    4.9114   18.2681 H           1 STE       0.0265
     34 H14        -4.1515    3.6063   18.0575 H           1 STE       0.0265
     35 H15        -2.4129    3.3706   19.9313 H           1 STE       0.0265
     36 H16        -4.0549    2.9310   20.2752 H           1 STE       0.0265
     37 H17        -4.0734    4.2361   22.0902 H           1 STE       0.0265
     38 H18        -3.8632    5.6669   21.1425 H           1 STE       0.0265
     39 H19        -1.7699    4.0536   22.5888 H           1 STE       0.0265
     40 H20        -2.2297    5.7295   22.8389 H           1 STE       0.0265
     41 H21        -0.3979    4.5103   20.7844 H           1 STE       0.0265
     42 H22        -0.1001    5.8584   21.8715 H           1 STE       0.0265
     43 H23        -2.0930    6.2354   19.5975 H           1 STE       0.0265
     44 H24        -0.3778    6.1168   19.2399 H           1 STE       0.0265
     45 H25        -0.5204    8.3601   19.3248 H           1 STE       0.0265
     46 H26        -0.0639    8.0429   20.9872 H           1 STE       0.0265
     47 H27        -1.6646    9.8064   20.8989 H           1 STE       0.0265
     48 H28        -2.3976    8.4416   21.7184 H           1 STE       0.0265
     49 H29        -3.6861    9.9962   19.9301 H           1 STE       0.0265
     50 H30        -4.1226    8.3427   20.2604 H           1 STE       0.0265
     51 H31        -4.2423    8.5355   17.9248 H           1 STE       0.0263
     52 H32        -2.7348    7.6495   18.2052 H           1 STE       0.0263
     53 H33        -2.4293    9.3309   16.4279 H           1 STE       0.0230
     54 H34        -1.4316    9.8028   17.8348 H           1 STE       0.0230
     55 H35        -2.9842   10.6472   17.5100 H           1 STE       0.0230
@<TRIPOS>BOND
     1     1     2  ar
     2     1     3  ar
     3     1     4   1
     4     4     5   1
     5     5     6   1
     6     6     7   1
     7     7     8   1
     8     8     9   1
     9     9    10   1
    10    10    11   1
    11    11    12   1
    12    12    13   1
    13    13    14   1
    14    14    15   1
    15    15    16   1
    16    16    17   1
    17    17    18   1
    18    18    19   1
    19    19    20   1
    20     4    21   1
    21     4    22   1
    22     5    23   1
    23     5    24   1
    24     6    25   1
    25     6    26   1
    26     7    27   1
    27     7    28   1
    28     8    29   1
    29     8    30   1
    30     9    31   1
    31     9    32   1
    32    10    33   1
    33    10    34   1
    34    11    35   1
    35    11    36   1
    36    12    37   1
    37    12    38   1
    38    13    39   1
    39    13    40   1
    40    14    41   1
    41    14    42   1
    42    15    43   1
    43    15    44   1
    44    16    45   1
    45    16    46   1
    46    17    47   1
    47    17    48   1
    48    18    49   1
    49    18    50   1
    50    19    51   1
    51    19    52   1
    52    20    53   1
    53    20    54   1
    54    20    55   1
@<TRIPOS>SUBSTRUCTURE
     1  STE      1

