@<TRIPOS>MOLECULE
3uex_ligand_064
    55    54
SMALL
GAST_HUCK
****
This file was generated by PARSER (from files_GN.cpp)

@<TRIPOS>ATOM
      1 C1         -5.2680    0.2593   15.6436 C.2         1 STE       0.0348
      2 O1         -4.4600   -0.5631   16.3575 O.co2       1 STE      -0.5690
      3 O2         -5.2416    0.1540   14.2955 O.co2       1 STE      -0.5690
      4 C2         -6.0999    1.2932   16.2972 C.3         1 STE       0.0002
      5 C3         -6.7311    0.8500   17.6508 C.3         1 STE      -0.0414
      6 C4         -5.7404    0.8861   18.8578 C.3         1 STE      -0.0516
      7 C5         -5.7245    2.2471   19.6077 C.3         1 STE      -0.0530
      8 C6         -4.4390    2.4895   20.4558 C.3         1 STE      -0.0531
      9 C7         -3.2134    2.9411   19.5981 C.3         1 STE      -0.0531
     10 C8         -2.1257    3.7631   20.3483 C.3         1 STE      -0.0531
     11 C9         -2.5861    5.0599   21.0822 C.3         1 STE      -0.0531
     12 C10        -3.7173    5.9058   20.4262 C.3         1 STE      -0.0531
     13 C11        -3.3781    6.5268   19.0356 C.3         1 STE      -0.0531
     14 C12        -4.6313    7.1256   18.3241 C.3         1 STE      -0.0531
     15 C13        -5.1623    8.4428   18.9766 C.3         1 STE      -0.0531
     16 C14        -6.6458    8.7936   18.6459 C.3         1 STE      -0.0531
     17 C15        -7.7458    7.8180   19.1750 C.3         1 STE      -0.0531
     18 C16        -7.6156    7.4062   20.6712 C.3         1 STE      -0.0533
     19 C17        -8.9089    6.8114   21.3107 C.3         1 STE      -0.0559
     20 C18       -10.0255    7.8557   21.5544 C.3         1 STE      -0.0653
     21 H1         -6.9132    1.5604   15.6144 H           1 STE       0.0430
     22 H2         -5.4911    2.1908   16.4445 H           1 STE       0.0430
     23 H3         -7.1315   -0.1609   17.5422 H           1 STE       0.0283
     24 H4         -7.5843    1.5002   17.8739 H           1 STE       0.0283
     25 H5         -4.7312    0.6379   18.5133 H           1 STE       0.0266
     26 H6         -6.0367    0.1183   19.5795 H           1 STE       0.0266
     27 H7         -6.5954    2.2767   20.2746 H           1 STE       0.0265
     28 H8         -5.8360    3.0731   18.8935 H           1 STE       0.0265
     29 H9         -4.1813    1.5725   21.0026 H           1 STE       0.0265
     30 H10        -4.6805    3.2502   21.2027 H           1 STE       0.0265
     31 H11        -3.5521    3.5389   18.7471 H           1 STE       0.0265
     32 H12        -2.7316    2.0475   19.1826 H           1 STE       0.0265
     33 H13        -1.3610    4.0463   19.6149 H           1 STE       0.0265
     34 H14        -1.6401    3.1105   21.0818 H           1 STE       0.0265
     35 H15        -1.7121    5.7062   21.2327 H           1 STE       0.0265
     36 H16        -2.9402    4.7711   22.0803 H           1 STE       0.0265
     37 H17        -3.9538    6.7212   21.1257 H           1 STE       0.0265
     38 H18        -4.6129    5.2817   20.3288 H           1 STE       0.0265
     39 H19        -2.9704    5.7524   18.3814 H           1 STE       0.0265
     40 H20        -2.6111    7.3064   19.1584 H           1 STE       0.0265
     41 H21        -5.4230    6.3670   18.3032 H           1 STE       0.0265
     42 H22        -4.3699    7.3453   17.2837 H           1 STE       0.0265
     43 H23        -4.5294    9.2677   18.6275 H           1 STE       0.0265
     44 H24        -5.0529    8.4063   20.0626 H           1 STE       0.0265
     45 H25        -6.7559    8.8767   17.5583 H           1 STE       0.0265
     46 H26        -6.8504    9.7860   19.0687 H           1 STE       0.0265
     47 H27        -7.7289    6.9092   18.5611 H           1 STE       0.0265
     48 H28        -8.7122    8.3123   19.0167 H           1 STE       0.0265
     49 H29        -7.2895    8.2680   21.2677 H           1 STE       0.0265
     50 H30        -6.8369    6.6384   20.7386 H           1 STE       0.0265
     51 H31        -8.6445    6.3788   22.2810 H           1 STE       0.0263
     52 H32        -9.2885    5.9918   20.6874 H           1 STE       0.0263
     53 H33       -10.8692    7.3740   22.0698 H           1 STE       0.0230
     54 H34       -10.3744    8.2643   20.6014 H           1 STE       0.0230
     55 H35        -9.6512    8.6696   22.1871 H           1 STE       0.0230
@<TRIPOS>BOND
     1     1     2  ar
     2     1     3  ar
     3     1     4   1
     4     4     5   1
     5     5     6   1
     6     6     7   1
     7     7     8   1
     8     8     9   1
     9     9    10   1
    10    10    11   1
    11    11    12   1
    12    12    13   1
    13    13    14   1
    14    14    15   1
    15    15    16   1
    16    16    17   1
    17    17    18   1
    18    18    19   1
    19    19    20   1
    20     4    21   1
    21     4    22   1
    22     5    23   1
    23     5    24   1
    24     6    25   1
    25     6    26   1
    26     7    27   1
    27     7    28   1
    28     8    29   1
    29     8    30   1
    30     9    31   1
    31     9    32   1
    32    10    33   1
    33    10    34   1
    34    11    35   1
    35    11    36   1
    36    12    37   1
    37    12    38   1
    38    13    39   1
    39    13    40   1
    40    14    41   1
    41    14    42   1
    42    15    43   1
    43    15    44   1
    44    16    45   1
    45    16    46   1
    46    17    47   1
    47    17    48   1
    48    18    49   1
    49    18    50   1
    50    19    51   1
    51    19    52   1
    52    20    53   1
    53    20    54   1
    54    20    55   1
@<TRIPOS>SUBSTRUCTURE
     1  STE      1

