@<TRIPOS>MOLECULE
3uex_ligand_057
    55    54
SMALL
GAST_HUCK
****
This file was generated by PARSER (from files_GN.cpp)

@<TRIPOS>ATOM
      1 C1         -4.6596   -0.0625   15.7425 C.2         1 STE       0.0348
      2 O1         -5.3473   -0.6474   16.7524 O.co2       1 STE      -0.5690
      3 O2         -5.3459    0.3819   14.6630 O.co2       1 STE      -0.5690
      4 C2         -3.1875    0.0133   15.7949 C.3         1 STE       0.0002
      5 C3         -2.6785    0.9284   16.9402 C.3         1 STE      -0.0414
      6 C4         -1.1257    0.9785   17.0146 C.3         1 STE      -0.0516
      7 C5         -0.5522    2.2090   17.7665 C.3         1 STE      -0.0530
      8 C6         -0.5865    2.1104   19.3201 C.3         1 STE      -0.0531
      9 C7          0.0851    3.3054   20.0570 C.3         1 STE      -0.0531
     10 C8         -0.6456    4.6593   19.8290 C.3         1 STE      -0.0531
     11 C9          0.0004    5.8768   20.5450 C.3         1 STE      -0.0531
     12 C10        -0.4718    7.2442   19.9734 C.3         1 STE      -0.0531
     13 C11        -1.9957    7.3446   19.6497 C.3         1 STE      -0.0531
     14 C12        -2.3968    8.5750   18.7902 C.3         1 STE      -0.0531
     15 C13        -2.5479    9.8867   19.6016 C.3         1 STE      -0.0531
     16 C14        -2.5843   11.1481   18.6997 C.3         1 STE      -0.0531
     17 C15        -2.5691   12.4857   19.4948 C.3         1 STE      -0.0531
     18 C16        -1.6992   12.5172   20.7852 C.3         1 STE      -0.0533
     19 C17        -0.1619   12.4132   20.5563 C.3         1 STE      -0.0559
     20 C18         0.5934   12.0440   21.8503 C.3         1 STE      -0.0653
     21 H1         -2.8152    0.3940   14.8397 H           1 STE       0.0430
     22 H2         -2.7948   -0.9968   15.9284 H           1 STE       0.0430
     23 H3         -3.0693    0.5538   17.8902 H           1 STE       0.0283
     24 H4         -3.0698    1.9389   16.7812 H           1 STE       0.0283
     25 H5         -0.7318    1.0147   15.9942 H           1 STE       0.0266
     26 H6         -0.7526    0.0627   17.4802 H           1 STE       0.0266
     27 H7         -1.1072    3.0858   17.4274 H           1 STE       0.0265
     28 H8          0.4893    2.3422   17.4600 H           1 STE       0.0265
     29 H9         -0.0732    1.1914   19.6191 H           1 STE       0.0265
     30 H10        -1.6186    2.0377   19.6688 H           1 STE       0.0265
     31 H11         1.1280    3.3939   19.7295 H           1 STE       0.0265
     32 H12         0.0896    3.0788   21.1296 H           1 STE       0.0265
     33 H13        -1.6740    4.5547   20.1850 H           1 STE       0.0265
     34 H14        -0.6684    4.8586   18.7531 H           1 STE       0.0265
     35 H15         1.0877    5.8137   20.4373 H           1 STE       0.0265
     36 H16        -0.2328    5.8245   21.6128 H           1 STE       0.0265
     37 H17         0.1036    7.4522   19.0660 H           1 STE       0.0265
     38 H18        -0.2055    8.0108   20.7055 H           1 STE       0.0265
     39 H19        -2.5662    7.3488   20.5869 H           1 STE       0.0265
     40 H20        -2.2900    6.4561   19.0793 H           1 STE       0.0265
     41 H21        -3.3490    8.3618   18.2998 H           1 STE       0.0265
     42 H22        -1.6470    8.7130   18.0093 H           1 STE       0.0265
     43 H23        -1.6916    9.9681   20.2691 H           1 STE       0.0265
     44 H24        -3.4576    9.8345   20.2087 H           1 STE       0.0265
     45 H25        -3.4820   11.1258   18.0715 H           1 STE       0.0265
     46 H26        -1.7224   11.1291   18.0253 H           1 STE       0.0265
     47 H27        -3.6010   12.7212   19.7783 H           1 STE       0.0265
     48 H28        -2.2342   13.2793   18.8183 H           1 STE       0.0265
     49 H29        -2.0316   11.7107   21.4449 H           1 STE       0.0265
     50 H30        -1.9172   13.4595   21.2998 H           1 STE       0.0265
     51 H31         0.2038   13.3658   20.1691 H           1 STE       0.0263
     52 H32         0.0738   11.6540   19.8107 H           1 STE       0.0263
     53 H33         1.6644   12.1795   21.6988 H           1 STE       0.0230
     54 H34         0.4054   11.0001   22.1044 H           1 STE       0.0230
     55 H35         0.2738   12.6712   22.6853 H           1 STE       0.0230
@<TRIPOS>BOND
     1     1     2  ar
     2     1     3  ar
     3     1     4   1
     4     4     5   1
     5     5     6   1
     6     6     7   1
     7     7     8   1
     8     8     9   1
     9     9    10   1
    10    10    11   1
    11    11    12   1
    12    12    13   1
    13    13    14   1
    14    14    15   1
    15    15    16   1
    16    16    17   1
    17    17    18   1
    18    18    19   1
    19    19    20   1
    20     4    21   1
    21     4    22   1
    22     5    23   1
    23     5    24   1
    24     6    25   1
    25     6    26   1
    26     7    27   1
    27     7    28   1
    28     8    29   1
    29     8    30   1
    30     9    31   1
    31     9    32   1
    32    10    33   1
    33    10    34   1
    34    11    35   1
    35    11    36   1
    36    12    37   1
    37    12    38   1
    38    13    39   1
    39    13    40   1
    40    14    41   1
    41    14    42   1
    42    15    43   1
    43    15    44   1
    44    16    45   1
    45    16    46   1
    46    17    47   1
    47    17    48   1
    48    18    49   1
    49    18    50   1
    50    19    51   1
    51    19    52   1
    52    20    53   1
    53    20    54   1
    54    20    55   1
@<TRIPOS>SUBSTRUCTURE
     1  STE      1

