@<TRIPOS>MOLECULE
3uex_ligand_002
    55    54
SMALL
GAST_HUCK
****
This file was generated by PARSER (from files_GN.cpp)

@<TRIPOS>ATOM
      1 C1         -5.5421    0.9656   15.8314 C.2         1 STE       0.0348
      2 O1         -5.3526    0.4601   14.5849 O.co2       1 STE      -0.5690
      3 O2         -4.7524    0.5280   16.8464 O.co2       1 STE      -0.5690
      4 C2         -6.6558    1.9016   16.1087 C.3         1 STE       0.0002
      5 C3         -6.1650    3.2314   16.7544 C.3         1 STE      -0.0414
      6 C4         -7.3283    4.0642   17.3725 C.3         1 STE      -0.0516
      7 C5         -6.9402    4.8337   18.6713 C.3         1 STE      -0.0530
      8 C6         -5.9855    6.0362   18.4579 C.3         1 STE      -0.0531
      9 C7         -5.5795    6.6678   19.8210 C.3         1 STE      -0.0531
     10 C8         -4.4017    7.6717   19.7719 C.3         1 STE      -0.0531
     11 C9         -2.9783    7.0383   19.7890 C.3         1 STE      -0.0531
     12 C10        -1.9713    7.6899   20.7809 C.3         1 STE      -0.0531
     13 C11        -1.3021    9.0289   20.3691 C.3         1 STE      -0.0531
     14 C12        -2.2695   10.2367   20.1783 C.3         1 STE      -0.0531
     15 C13        -1.5824   11.6077   20.4113 C.3         1 STE      -0.0531
     16 C14        -2.5787   12.7874   20.6314 C.3         1 STE      -0.0531
     17 C15        -3.2027   13.4235   19.3444 C.3         1 STE      -0.0531
     18 C16        -2.7755   14.8996   19.1049 C.3         1 STE      -0.0533
     19 C17        -3.8717   15.7765   18.4289 C.3         1 STE      -0.0559
     20 C18        -3.5090   17.2836   18.4415 C.3         1 STE      -0.0653
     21 H1         -7.3631    1.4079   16.7953 H           1 STE       0.0430
     22 H2         -7.1760    2.1349   15.1746 H           1 STE       0.0430
     23 H3         -5.6471    3.8403   15.9969 H           1 STE       0.0283
     24 H4         -5.4318    2.9671   17.5318 H           1 STE       0.0283
     25 H5         -8.1645    3.3993   17.6265 H           1 STE       0.0266
     26 H6         -7.6945    4.7734   16.6204 H           1 STE       0.0266
     27 H7         -6.4883    4.1091   19.3608 H           1 STE       0.0265
     28 H8         -7.8672    5.1965   19.1279 H           1 STE       0.0265
     29 H9         -6.4865    6.7924   17.8342 H           1 STE       0.0265
     30 H10        -5.0879    5.6860   17.9318 H           1 STE       0.0265
     31 H11        -5.3200    5.8671   20.5234 H           1 STE       0.0265
     32 H12        -6.4518    7.2051   20.2147 H           1 STE       0.0265
     33 H13        -4.5121    8.3220   20.6490 H           1 STE       0.0265
     34 H14        -4.5000    8.2996   18.8821 H           1 STE       0.0265
     35 H15        -2.5610    7.0725   18.7747 H           1 STE       0.0265
     36 H16        -3.0583    5.9810   20.0698 H           1 STE       0.0265
     37 H17        -1.1617    6.9698   20.9365 H           1 STE       0.0265
     38 H18        -2.4568    7.8273   21.7499 H           1 STE       0.0265
     39 H19        -0.7238    8.8879   19.4453 H           1 STE       0.0265
     40 H20        -0.5785    9.2733   21.1586 H           1 STE       0.0265
     41 H21        -3.0954   10.1547   20.8914 H           1 STE       0.0265
     42 H22        -2.6941   10.2183   19.1731 H           1 STE       0.0265
     43 H23        -0.9255   11.8494   19.5703 H           1 STE       0.0265
     44 H24        -0.9603   11.5374   21.3072 H           1 STE       0.0265
     45 H25        -2.0502   13.5681   21.1997 H           1 STE       0.0265
     46 H26        -3.3886   12.4499   21.2893 H           1 STE       0.0265
     47 H27        -4.2926   13.3719   19.4303 H           1 STE       0.0265
     48 H28        -2.9326   12.8373   18.4603 H           1 STE       0.0265
     49 H29        -1.8667   14.9070   18.4924 H           1 STE       0.0265
     50 H30        -2.5267   15.3544   20.0678 H           1 STE       0.0265
     51 H31        -4.8241   15.6361   18.9584 H           1 STE       0.0263
     52 H32        -3.9959   15.4567   17.3895 H           1 STE       0.0263
     53 H33        -4.3403   17.8587   18.0180 H           1 STE       0.0230
     54 H34        -2.6112   17.4650   17.8392 H           1 STE       0.0230
     55 H35        -3.3348   17.6181   19.4693 H           1 STE       0.0230
@<TRIPOS>BOND
     1     1     2  ar
     2     1     3  ar
     3     1     4   1
     4     4     5   1
     5     5     6   1
     6     6     7   1
     7     7     8   1
     8     8     9   1
     9     9    10   1
    10    10    11   1
    11    11    12   1
    12    12    13   1
    13    13    14   1
    14    14    15   1
    15    15    16   1
    16    16    17   1
    17    17    18   1
    18    18    19   1
    19    19    20   1
    20     4    21   1
    21     4    22   1
    22     5    23   1
    23     5    24   1
    24     6    25   1
    25     6    26   1
    26     7    27   1
    27     7    28   1
    28     8    29   1
    29     8    30   1
    30     9    31   1
    31     9    32   1
    32    10    33   1
    33    10    34   1
    34    11    35   1
    35    11    36   1
    36    12    37   1
    37    12    38   1
    38    13    39   1
    39    13    40   1
    40    14    41   1
    41    14    42   1
    42    15    43   1
    43    15    44   1
    44    16    45   1
    45    16    46   1
    46    17    47   1
    47    17    48   1
    48    18    49   1
    49    18    50   1
    50    19    51   1
    51    19    52   1
    52    20    53   1
    53    20    54   1
    54    20    55   1
@<TRIPOS>SUBSTRUCTURE
     1  STE      1

