@<TRIPOS>MOLECULE
3uex_ligand_017
    55    54
SMALL
GAST_HUCK
****
This file was generated by PARSER (from files_GN.cpp)

@<TRIPOS>ATOM
      1 C1         -4.8945   -0.4861   15.0918 C.2         1 STE       0.0348
      2 O1         -4.1227   -1.5879   15.2862 O.co2       1 STE      -0.5690
      3 O2         -5.1198   -0.0839   13.8207 O.co2       1 STE      -0.5690
      4 C2         -5.3375    0.2984   16.2702 C.3         1 STE       0.0002
      5 C3         -6.0277    1.6539   15.9451 C.3         1 STE      -0.0414
      6 C4         -6.3853    2.4766   17.2066 C.3         1 STE      -0.0516
      7 C5         -6.8819    3.9168   16.8755 C.3         1 STE      -0.0530
      8 C6         -6.5738    4.9890   17.9460 C.3         1 STE      -0.0531
      9 C7         -6.7533    4.5539   19.4335 C.3         1 STE      -0.0531
     10 C8         -7.6352    5.4746   20.3354 C.3         1 STE      -0.0531
     11 C9         -7.5064    7.0299   20.2095 C.3         1 STE      -0.0531
     12 C10        -6.1163    7.6270   19.8374 C.3         1 STE      -0.0531
     13 C11        -4.9337    7.2992   20.8011 C.3         1 STE      -0.0531
     14 C12        -3.5387    7.6666   20.2165 C.3         1 STE      -0.0531
     15 C13        -3.5017    8.9315   19.3093 C.3         1 STE      -0.0531
     16 C14        -2.1456    9.0867   18.5462 C.3         1 STE      -0.0531
     17 C15        -1.3889   10.4176   18.7976 C.3         1 STE      -0.0531
     18 C16        -1.1422   10.7206   20.3082 C.3         1 STE      -0.0533
     19 C17        -0.1147   11.8691   20.5182 C.3         1 STE      -0.0559
     20 C18         0.5258   11.8233   21.9290 C.3         1 STE      -0.0653
     21 H1         -4.4556    0.4811   16.8912 H           1 STE       0.0430
     22 H2         -6.0279   -0.3302   16.8369 H           1 STE       0.0430
     23 H3         -6.9359    1.4470   15.3675 H           1 STE       0.0283
     24 H4         -5.3526    2.2517   15.3244 H           1 STE       0.0283
     25 H5         -5.4889    2.5233   17.8377 H           1 STE       0.0266
     26 H6         -7.1613    1.9507   17.7731 H           1 STE       0.0266
     27 H7         -7.9648    3.8822   16.7092 H           1 STE       0.0265
     28 H8         -6.4220    4.2439   15.9348 H           1 STE       0.0265
     29 H9         -7.2006    5.8583   17.7207 H           1 STE       0.0265
     30 H10        -5.5346    5.3077   17.7867 H           1 STE       0.0265
     31 H11        -5.7616    4.4834   19.8840 H           1 STE       0.0265
     32 H12        -7.1931    3.5536   19.4677 H           1 STE       0.0265
     33 H13        -7.4213    5.1917   21.3759 H           1 STE       0.0265
     34 H14        -8.6879    5.2065   20.1511 H           1 STE       0.0265
     35 H15        -7.8550    7.4856   21.1465 H           1 STE       0.0265
     36 H16        -8.2062    7.3541   19.4247 H           1 STE       0.0265
     37 H17        -6.2440    8.7184   19.8057 H           1 STE       0.0265
     38 H18        -5.8686    7.3053   18.8241 H           1 STE       0.0265
     39 H19        -4.9298    6.2255   21.0294 H           1 STE       0.0265
     40 H20        -5.0864    7.8387   21.7424 H           1 STE       0.0265
     41 H21        -3.1770    6.7998   19.6370 H           1 STE       0.0265
     42 H22        -2.8559    7.8146   21.0648 H           1 STE       0.0265
     43 H23        -3.7098    9.8136   19.9338 H           1 STE       0.0265
     44 H24        -4.3105    8.8475   18.5722 H           1 STE       0.0265
     45 H25        -2.3513    9.0277   17.4729 H           1 STE       0.0265
     46 H26        -1.4578    8.2607   18.7770 H           1 STE       0.0265
     47 H27        -1.9398   11.2532   18.3452 H           1 STE       0.0265
     48 H28        -0.4173   10.3586   18.2950 H           1 STE       0.0265
     49 H29        -0.7674    9.8127   20.7996 H           1 STE       0.0265
     50 H30        -2.0943   11.0036   20.7723 H           1 STE       0.0265
     51 H31        -0.6191   12.8331   20.3874 H           1 STE       0.0263
     52 H32         0.6739   11.7892   19.7597 H           1 STE       0.0263
     53 H33         1.2798   12.6038   21.9857 H           1 STE       0.0230
     54 H34         0.9958   10.8540   22.1089 H           1 STE       0.0230
     55 H35        -0.2330   12.0105   22.6910 H           1 STE       0.0230
@<TRIPOS>BOND
     1     1     2  ar
     2     1     3  ar
     3     1     4   1
     4     4     5   1
     5     5     6   1
     6     6     7   1
     7     7     8   1
     8     8     9   1
     9     9    10   1
    10    10    11   1
    11    11    12   1
    12    12    13   1
    13    13    14   1
    14    14    15   1
    15    15    16   1
    16    16    17   1
    17    17    18   1
    18    18    19   1
    19    19    20   1
    20     4    21   1
    21     4    22   1
    22     5    23   1
    23     5    24   1
    24     6    25   1
    25     6    26   1
    26     7    27   1
    27     7    28   1
    28     8    29   1
    29     8    30   1
    30     9    31   1
    31     9    32   1
    32    10    33   1
    33    10    34   1
    34    11    35   1
    35    11    36   1
    36    12    37   1
    37    12    38   1
    38    13    39   1
    39    13    40   1
    40    14    41   1
    41    14    42   1
    42    15    43   1
    43    15    44   1
    44    16    45   1
    45    16    46   1
    46    17    47   1
    47    17    48   1
    48    18    49   1
    49    18    50   1
    50    19    51   1
    51    19    52   1
    52    20    53   1
    53    20    54   1
    54    20    55   1
@<TRIPOS>SUBSTRUCTURE
     1  STE      1

