@<TRIPOS>MOLECULE
3uex_ligand_012
    55    54
SMALL
GAST_HUCK
****
This file was generated by PARSER (from files_GN.cpp)

@<TRIPOS>ATOM
      1 C1         -7.6258    3.6824   15.2622 C.2         1 STE       0.0348
      2 O1         -7.4624    4.2442   14.0518 O.co2       1 STE      -0.5690
      3 O2         -8.8311    3.8325   15.8640 O.co2       1 STE      -0.5690
      4 C2         -6.7014    2.6335   15.7415 C.3         1 STE       0.0002
      5 C3         -6.6286    2.5328   17.2897 C.3         1 STE      -0.0414
      6 C4         -5.8022    3.6649   17.9689 C.3         1 STE      -0.0516
      7 C5         -6.2285    3.8892   19.4545 C.3         1 STE      -0.0530
      8 C6         -5.2047    4.6361   20.3446 C.3         1 STE      -0.0531
      9 C7         -4.5536    5.8868   19.6854 C.3         1 STE      -0.0531
     10 C8         -3.6403    6.6638   20.6740 C.3         1 STE      -0.0531
     11 C9         -2.9056    7.8775   20.0383 C.3         1 STE      -0.0531
     12 C10        -3.8310    8.8470   19.2490 C.3         1 STE      -0.0531
     13 C11        -3.3634   10.3246   19.3464 C.3         1 STE      -0.0531
     14 C12        -4.3158   11.3484   18.6486 C.3         1 STE      -0.0531
     15 C13        -4.1228   12.7777   19.2292 C.3         1 STE      -0.0531
     16 C14        -4.7821   13.9428   18.4349 C.3         1 STE      -0.0531
     17 C15        -4.3801   13.9987   16.9342 C.3         1 STE      -0.0531
     18 C16        -4.4111   15.4494   16.3608 C.3         1 STE      -0.0533
     19 C17        -4.2985   15.5308   14.8080 C.3         1 STE      -0.0559
     20 C18        -5.5845   15.1025   14.0580 C.3         1 STE      -0.0653
     21 H1         -5.6990    2.8048   15.3348 H           1 STE       0.0430
     22 H2         -7.0610    1.6763   15.3578 H           1 STE       0.0430
     23 H3         -6.1650    1.5760   17.5509 H           1 STE       0.0283
     24 H4         -7.6516    2.5202   17.6900 H           1 STE       0.0283
     25 H5         -5.9429    4.6106   17.4316 H           1 STE       0.0266
     26 H6         -4.7376    3.4045   17.9277 H           1 STE       0.0266
     27 H7         -6.4168    2.9195   19.9250 H           1 STE       0.0265
     28 H8         -7.1712    4.4497   19.4621 H           1 STE       0.0265
     29 H9         -4.4085    3.9374   20.6339 H           1 STE       0.0265
     30 H10        -5.7202    4.9409   21.2656 H           1 STE       0.0265
     31 H11        -5.3435    6.5573   19.3200 H           1 STE       0.0265
     32 H12        -3.9493    5.5504   18.8328 H           1 STE       0.0265
     33 H13        -2.8749    5.9834   21.0717 H           1 STE       0.0265
     34 H14        -4.2459    7.0221   21.5180 H           1 STE       0.0265
     35 H15        -2.1192    7.5117   19.3691 H           1 STE       0.0265
     36 H16        -2.4119    8.4142   20.8532 H           1 STE       0.0265
     37 H17        -4.8493    8.7906   19.6442 H           1 STE       0.0265
     38 H18        -3.8594    8.5485   18.1991 H           1 STE       0.0265
     39 H19        -2.3657   10.4202   18.9032 H           1 STE       0.0265
     40 H20        -3.2883   10.5817   20.4099 H           1 STE       0.0265
     41 H21        -5.3601   11.0455   18.8017 H           1 STE       0.0265
     42 H22        -4.1101   11.3488   17.5695 H           1 STE       0.0265
     43 H23        -3.0496   12.9819   19.3346 H           1 STE       0.0265
     44 H24        -4.5602   12.7891   20.2331 H           1 STE       0.0265
     45 H25        -4.4714   14.8728   18.9209 H           1 STE       0.0265
     46 H26        -5.8731   13.8703   18.5144 H           1 STE       0.0265
     47 H27        -5.0552   13.3616   16.3556 H           1 STE       0.0265
     48 H28        -3.3592   13.6216   16.8068 H           1 STE       0.0265
     49 H29        -3.5553   15.9983   16.7718 H           1 STE       0.0265
     50 H30        -5.3233   15.9688   16.6819 H           1 STE       0.0265
     51 H31        -3.4590   14.9160   14.4602 H           1 STE       0.0263
     52 H32        -4.0857   16.5716   14.5254 H           1 STE       0.0263
     53 H33        -5.4320   15.1982   12.9775 H           1 STE       0.0230
     54 H34        -6.4259   15.7378   14.3514 H           1 STE       0.0230
     55 H35        -5.8323   14.0620   14.2759 H           1 STE       0.0230
@<TRIPOS>BOND
     1     1     2  ar
     2     1     3  ar
     3     1     4   1
     4     4     5   1
     5     5     6   1
     6     6     7   1
     7     7     8   1
     8     8     9   1
     9     9    10   1
    10    10    11   1
    11    11    12   1
    12    12    13   1
    13    13    14   1
    14    14    15   1
    15    15    16   1
    16    16    17   1
    17    17    18   1
    18    18    19   1
    19    19    20   1
    20     4    21   1
    21     4    22   1
    22     5    23   1
    23     5    24   1
    24     6    25   1
    25     6    26   1
    26     7    27   1
    27     7    28   1
    28     8    29   1
    29     8    30   1
    30     9    31   1
    31     9    32   1
    32    10    33   1
    33    10    34   1
    34    11    35   1
    35    11    36   1
    36    12    37   1
    37    12    38   1
    38    13    39   1
    39    13    40   1
    40    14    41   1
    41    14    42   1
    42    15    43   1
    43    15    44   1
    44    16    45   1
    45    16    46   1
    46    17    47   1
    47    17    48   1
    48    18    49   1
    49    18    50   1
    50    19    51   1
    51    19    52   1
    52    20    53   1
    53    20    54   1
    54    20    55   1
@<TRIPOS>SUBSTRUCTURE
     1  STE      1

