@<TRIPOS>MOLECULE
3uo4_ligand_088
    46    49
SMALL
GAST_HUCK
****
This file was generated by PARSER (from files_GN.cpp)

@<TRIPOS>ATOM
      1 N01         5.1973   34.4239   -0.9425 N.ar        1 MOL      -0.2685
      2 N02         5.4598   32.7465    0.6488 N.ar        1 MOL      -0.2339
      3 N03         6.9891   30.9629    0.3415 N.pl3       1 MOL      -0.2537
      4 N04         3.8616   34.4855    0.9808 N.pl3       1 MOL      -0.2427
      5 C05         6.1680   33.8735   -1.7188 C.ar        1 MOL       0.0015
      6 C06         4.8379   33.8894    0.2530 C.ar        1 MOL       0.1962
      7 C07         6.4255   32.1236   -0.0775 C.ar        1 MOL       0.1353
      8 C08         6.8280   32.7041   -1.2966 C.ar        1 MOL      -0.0013
      9 C09         6.6395   30.2508    1.4588 C.ar        1 MOL       0.0745
     10 C10         7.7055   29.8502    2.2932 C.ar        1 MOL      -0.0363
     11 C11         7.4609   29.1923    3.5064 C.ar        1 MOL      -0.0708
     12 C12         6.1454   28.9040    3.8953 C.ar        1 MOL      -0.0722
     13 C13         5.0746   29.2527    3.0543 C.ar        1 MOL      -0.0625
     14 C14         5.2999   29.9155    1.8215 C.ar        1 MOL       0.0075
     15 C15         4.1859   30.2301    0.9875 C.ar        1 MOL      -0.0223
     16 C16         3.3521   34.0660    2.1769 C.ar        1 MOL       0.0684
     17 C17         1.9720   34.2429    2.4106 C.ar        1 MOL      -0.0343
     18 C18         1.3773   33.7591    3.5880 C.ar        1 MOL      -0.0571
     19 C19         2.1444   33.0992    4.5760 C.ar        1 MOL      -0.0016
     20 C20         3.5380   32.9893    4.3745 C.ar        1 MOL      -0.0571
     21 C21         4.1335   33.4608    3.1903 C.ar        1 MOL      -0.0343
     22 C22         1.5388   32.5497    5.7332 C.2         1 MOL       0.0553
     23 C23         4.1384   29.7991   -0.3616 C.ar        1 MOL      -0.0571
     24 C24         3.1075   30.2273   -1.2197 C.ar        1 MOL      -0.0632
     25 C25         2.0939   31.0687   -0.7290 C.ar        1 MOL      -0.0635
     26 C26         2.0956   31.4654    0.6195 C.ar        1 MOL      -0.0632
     27 C27         3.1311   31.0437    1.4773 C.ar        1 MOL      -0.0571
     28 O28         2.1848   31.6630    6.5261 O.co2       1 MOL      -0.5638
     29 O29         0.2567   32.8312    6.0611 O.co2       1 MOL      -0.5638
     30 H1          7.7664   30.6497   -0.1502 H           1 MOL       0.2176
     31 H2          3.3946   35.2188    0.5433 H           1 MOL       0.2187
     32 H3          6.4142   34.3133   -2.6072 H           1 MOL       0.0849
     33 H4          7.5498   32.2784   -1.8796 H           1 MOL       0.0586
     34 H5          8.6740   30.0706    2.0345 H           1 MOL       0.0537
     35 H6          8.2434   28.9294    4.1116 H           1 MOL       0.0591
     36 H7          5.9663   28.4298    4.7824 H           1 MOL       0.0524
     37 H8          4.1236   29.0046    3.3503 H           1 MOL       0.0594
     38 H9          1.3880   34.6937    1.7058 H           1 MOL       0.0545
     39 H10         0.3696   33.8736    3.7059 H           1 MOL       0.0622
     40 H11         4.1434   32.5658    5.0858 H           1 MOL       0.0622
     41 H12         5.1446   33.3712    3.0912 H           1 MOL       0.0545
     42 H13         4.8711   29.1934   -0.7372 H           1 MOL       0.0606
     43 H14         3.0981   29.9339   -2.1976 H           1 MOL       0.0613
     44 H15         1.3478   31.3954   -1.3533 H           1 MOL       0.0603
     45 H16         1.3473   32.0651    0.9792 H           1 MOL       0.0613
     46 H17         3.1270   31.3717    2.4528 H           1 MOL       0.0606
@<TRIPOS>BOND
     1     1     5  ar
     2     1     6  ar
     3     6     2  ar
     4     2     7  ar
     5     7     3   1
     6     3     9   1
     7     6     4   1
     8     4    16   1
     9     5     8  ar
    10     7     8  ar
    11     9    10  ar
    12     9    14  ar
    13    10    11  ar
    14    11    12  ar
    15    12    13  ar
    16    13    14  ar
    17    14    15   1
    18    15    23  ar
    19    15    27  ar
    20    16    17  ar
    21    16    21  ar
    22    17    18  ar
    23    18    19  ar
    24    19    20  ar
    25    19    22   1
    26    20    21  ar
    27    22    28  ar
    28    22    29  ar
    29    23    24  ar
    30    24    25  ar
    31    25    26  ar
    32    26    27  ar
    33     3    30   1
    34     4    31   1
    35     5    32   1
    36     8    33   1
    37    10    34   1
    38    11    35   1
    39    12    36   1
    40    13    37   1
    41    17    38   1
    42    18    39   1
    43    20    40   1
    44    21    41   1
    45    23    42   1
    46    24    43   1
    47    25    44   1
    48    26    45   1
    49    27    46   1
@<TRIPOS>SUBSTRUCTURE
     1  MOL      5

