@<TRIPOS>MOLECULE
3uo4_ligand_055
    46    49
SMALL
GAST_HUCK
****
This file was generated by PARSER (from files_GN.cpp)

@<TRIPOS>ATOM
      1 N01        10.2278   26.1131    4.2517 N.ar        1 MOL      -0.2685
      2 N02         9.0099   26.8298    2.3919 N.ar        1 MOL      -0.2339
      3 N03         9.5808   26.0490    0.1974 N.pl3       1 MOL      -0.2537
      4 N04         8.3962   27.6355    4.4851 N.pl3       1 MOL      -0.2427
      5 C05        11.0082   25.3257    3.4747 C.ar        1 MOL       0.0015
      6 C06         9.2254   26.8745    3.7317 C.ar        1 MOL       0.1962
      7 C07         9.7446   26.0542    1.5467 C.ar        1 MOL       0.1353
      8 C08        10.7818   25.2690    2.0892 C.ar        1 MOL      -0.0013
      9 C09         8.7969   26.8994   -0.5295 C.ar        1 MOL       0.0745
     10 C10         7.4159   26.9747   -0.2218 C.ar        1 MOL      -0.0363
     11 C11         6.5539   27.7986   -0.9610 C.ar        1 MOL      -0.0708
     12 C12         7.0689   28.5716   -2.0094 C.ar        1 MOL      -0.0722
     13 C13         8.4350   28.5015   -2.3278 C.ar        1 MOL      -0.0625
     14 C14         9.3330   27.6467   -1.6296 C.ar        1 MOL       0.0075
     15 C15        10.7168   27.5824   -2.0556 C.ar        1 MOL      -0.0223
     16 C16         8.4052   27.7681    5.8422 C.ar        1 MOL       0.0684
     17 C17         7.1658   27.7989    6.5134 C.ar        1 MOL      -0.0343
     18 C18         7.1116   27.8719    7.9181 C.ar        1 MOL      -0.0571
     19 C19         8.2964   27.9368    8.6878 C.ar        1 MOL      -0.0016
     20 C20         9.5328   27.9687    8.0036 C.ar        1 MOL      -0.0571
     21 C21         9.5894   27.8913    6.6014 C.ar        1 MOL      -0.0343
     22 C22         8.2490   27.9643   10.1063 C.2         1 MOL       0.0553
     23 C23        11.0657   27.6893   -3.4322 C.ar        1 MOL      -0.0571
     24 C24        12.4042   27.6329   -3.8658 C.ar        1 MOL      -0.0632
     25 C25        13.4365   27.4053   -2.9411 C.ar        1 MOL      -0.0635
     26 C26        13.1258   27.2815   -1.5771 C.ar        1 MOL      -0.0632
     27 C27        11.7930   27.4148   -1.1405 C.ar        1 MOL      -0.0571
     28 O28         7.0775   28.0125   10.7807 O.co2       1 MOL      -0.5638
     29 O29         9.3699   27.8821   10.8604 O.co2       1 MOL      -0.5638
     30 H1         10.2240   25.5246   -0.3018 H           1 MOL       0.2176
     31 H2          7.6437   28.0319    4.0183 H           1 MOL       0.2187
     32 H3         11.7553   24.7741    3.8996 H           1 MOL       0.0849
     33 H4         11.3801   24.6907    1.4956 H           1 MOL       0.0586
     34 H5          7.0210   26.4126    0.5372 H           1 MOL       0.0537
     35 H6          5.5564   27.8386   -0.7341 H           1 MOL       0.0591
     36 H7          6.4472   29.1810   -2.5470 H           1 MOL       0.0524
     37 H8          8.7656   29.0999   -3.0889 H           1 MOL       0.0594
     38 H9          6.2925   27.7247    5.9843 H           1 MOL       0.0545
     39 H10         6.1924   27.8547    8.3695 H           1 MOL       0.0622
     40 H11        10.4138   28.0489    8.5138 H           1 MOL       0.0622
     41 H12        10.5016   27.9288    6.1397 H           1 MOL       0.0545
     42 H13        10.3456   27.8032   -4.1471 H           1 MOL       0.0606
     43 H14        12.6274   27.7486   -4.8574 H           1 MOL       0.0613
     44 H15        14.4048   27.3373   -3.2580 H           1 MOL       0.0603
     45 H16        13.8746   27.1146   -0.8992 H           1 MOL       0.0613
     46 H17        11.6270   27.3908   -0.1365 H           1 MOL       0.0606
@<TRIPOS>BOND
     1     1     5  ar
     2     1     6  ar
     3     6     2  ar
     4     2     7  ar
     5     7     3   1
     6     3     9   1
     7     6     4   1
     8     4    16   1
     9     5     8  ar
    10     7     8  ar
    11     9    10  ar
    12     9    14  ar
    13    10    11  ar
    14    11    12  ar
    15    12    13  ar
    16    13    14  ar
    17    14    15   1
    18    15    23  ar
    19    15    27  ar
    20    16    17  ar
    21    16    21  ar
    22    17    18  ar
    23    18    19  ar
    24    19    20  ar
    25    19    22   1
    26    20    21  ar
    27    22    28  ar
    28    22    29  ar
    29    23    24  ar
    30    24    25  ar
    31    25    26  ar
    32    26    27  ar
    33     3    30   1
    34     4    31   1
    35     5    32   1
    36     8    33   1
    37    10    34   1
    38    11    35   1
    39    12    36   1
    40    13    37   1
    41    17    38   1
    42    18    39   1
    43    20    40   1
    44    21    41   1
    45    23    42   1
    46    24    43   1
    47    25    44   1
    48    26    45   1
    49    27    46   1
@<TRIPOS>SUBSTRUCTURE
     1  MOL      5

