@<TRIPOS>MOLECULE
3uo4_ligand_095
    46    49
SMALL
GAST_HUCK
****
This file was generated by PARSER (from files_GN.cpp)

@<TRIPOS>ATOM
      1 N01         4.5144   27.3176    3.6284 N.ar        1 MOL      -0.2685
      2 N02         6.0652   28.9043    4.3774 N.ar        1 MOL      -0.2339
      3 N03         8.3612   28.3676    4.5799 N.pl3       1 MOL      -0.2537
      4 N04         3.7258   29.3917    4.3386 N.pl3       1 MOL      -0.2427
      5 C05         5.4978   26.4130    3.4296 C.ar        1 MOL       0.0015
      6 C06         4.7747   28.5660    4.0994 C.ar        1 MOL       0.1962
      7 C07         7.1022   28.0403    4.2097 C.ar        1 MOL       0.1353
      8 C08         6.8278   26.7438    3.7288 C.ar        1 MOL      -0.0013
      9 C09         8.7501   29.5796    5.0756 C.ar        1 MOL       0.0745
     10 C10         8.7712   30.7042    4.2219 C.ar        1 MOL      -0.0363
     11 C11         9.2068   31.9496    4.7019 C.ar        1 MOL      -0.0708
     12 C12         9.6053   32.0863    6.0388 C.ar        1 MOL      -0.0722
     13 C13         9.5623   30.9824    6.9009 C.ar        1 MOL      -0.0625
     14 C14         9.1384   29.7173    6.4351 C.ar        1 MOL       0.0075
     15 C15         9.0809   28.6347    7.3544 C.ar        1 MOL      -0.0223
     16 C16         3.8153   30.6409    4.8618 C.ar        1 MOL       0.0684
     17 C17         3.2977   30.8971    6.1509 C.ar        1 MOL      -0.0343
     18 C18         3.3677   32.1958    6.7000 C.ar        1 MOL      -0.0571
     19 C19         3.9577   33.2494    5.9639 C.ar        1 MOL      -0.0016
     20 C20         4.4494   32.9895    4.6667 C.ar        1 MOL      -0.0571
     21 C21         4.3923   31.6946    4.1260 C.ar        1 MOL      -0.0343
     22 C22         3.9701   34.5525    6.4961 C.2         1 MOL       0.0553
     23 C23         8.2407   28.7107    8.4902 C.ar        1 MOL      -0.0571
     24 C24         8.1770   27.6461    9.4051 C.ar        1 MOL      -0.0632
     25 C25         8.9443   26.4887    9.1896 C.ar        1 MOL      -0.0635
     26 C26         9.7930   26.4047    8.0712 C.ar        1 MOL      -0.0632
     27 C27         9.8573   27.4695    7.1542 C.ar        1 MOL      -0.0571
     28 O28         5.1255   35.1969    6.7843 O.co2       1 MOL      -0.5638
     29 O29         2.8265   35.2720    6.5066 O.co2       1 MOL      -0.5638
     30 H1          9.0121   27.6523    4.5917 H           1 MOL       0.2176
     31 H2          2.8381   29.0181    4.2360 H           1 MOL       0.2187
     32 H3          5.2570   25.4879    3.0915 H           1 MOL       0.0849
     33 H4          7.5735   26.0640    3.6030 H           1 MOL       0.0586
     34 H5          8.5004   30.6130    3.2417 H           1 MOL       0.0537
     35 H6          9.2541   32.7531    4.0766 H           1 MOL       0.0591
     36 H7          9.9262   32.9871    6.3881 H           1 MOL       0.0524
     37 H8          9.8469   31.1073    7.8726 H           1 MOL       0.0594
     38 H9          2.8752   30.1397    6.6948 H           1 MOL       0.0545
     39 H10         2.9926   32.3440    7.6363 H           1 MOL       0.0622
     40 H11         4.8291   33.7521    4.0963 H           1 MOL       0.0622
     41 H12         4.7259   31.5387    3.1739 H           1 MOL       0.0545
     42 H13         7.6689   29.5442    8.6596 H           1 MOL       0.0606
     43 H14         7.5655   27.7068   10.2199 H           1 MOL       0.0613
     44 H15         8.8977   25.7098    9.8502 H           1 MOL       0.0603
     45 H16        10.3559   25.5654    7.9153 H           1 MOL       0.0613
     46 H17        10.4882   27.3986    6.3476 H           1 MOL       0.0606
@<TRIPOS>BOND
     1     1     5  ar
     2     1     6  ar
     3     6     2  ar
     4     2     7  ar
     5     7     3   1
     6     3     9   1
     7     6     4   1
     8     4    16   1
     9     5     8  ar
    10     7     8  ar
    11     9    10  ar
    12     9    14  ar
    13    10    11  ar
    14    11    12  ar
    15    12    13  ar
    16    13    14  ar
    17    14    15   1
    18    15    23  ar
    19    15    27  ar
    20    16    17  ar
    21    16    21  ar
    22    17    18  ar
    23    18    19  ar
    24    19    20  ar
    25    19    22   1
    26    20    21  ar
    27    22    28  ar
    28    22    29  ar
    29    23    24  ar
    30    24    25  ar
    31    25    26  ar
    32    26    27  ar
    33     3    30   1
    34     4    31   1
    35     5    32   1
    36     8    33   1
    37    10    34   1
    38    11    35   1
    39    12    36   1
    40    13    37   1
    41    17    38   1
    42    18    39   1
    43    20    40   1
    44    21    41   1
    45    23    42   1
    46    24    43   1
    47    25    44   1
    48    26    45   1
    49    27    46   1
@<TRIPOS>SUBSTRUCTURE
     1  MOL      5

