@<TRIPOS>MOLECULE
3uo4_ligand_051
    46    49
SMALL
GAST_HUCK
****
This file was generated by PARSER (from files_GN.cpp)

@<TRIPOS>ATOM
      1 N01         5.2291   30.7655    4.9055 N.ar        1 MOL      -0.2685
      2 N02         4.9378   28.6989    5.9554 N.ar        1 MOL      -0.2339
      3 N03         6.5538   27.0472    6.0135 N.pl3       1 MOL      -0.2537
      4 N04         3.1485   30.1960    5.9234 N.pl3       1 MOL      -0.2427
      5 C05         6.5188   30.4696    4.6155 C.ar        1 MOL       0.0015
      6 C06         4.4267   29.9000    5.5842 C.ar        1 MOL       0.1962
      7 C07         6.2088   28.3123    5.6688 C.ar        1 MOL       0.1353
      8 C08         7.0584   29.2352    5.0134 C.ar        1 MOL      -0.0013
      9 C09         7.6939   26.3622    5.6987 C.ar        1 MOL       0.0745
     10 C10         8.3447   25.7560    6.7995 C.ar        1 MOL      -0.0363
     11 C11         9.5811   25.1075    6.6420 C.ar        1 MOL      -0.0708
     12 C12        10.1651   25.0404    5.3692 C.ar        1 MOL      -0.0722
     13 C13         9.4880   25.5707    4.2549 C.ar        1 MOL      -0.0625
     14 C14         8.2312   26.2214    4.3786 C.ar        1 MOL       0.0075
     15 C15         7.5481   26.6738    3.1910 C.ar        1 MOL      -0.0223
     16 C16         2.5125   31.3642    5.6375 C.ar        1 MOL       0.0684
     17 C17         2.3599   31.8436    4.3145 C.ar        1 MOL      -0.0343
     18 C18         1.7211   33.0702    4.0677 C.ar        1 MOL      -0.0571
     19 C19         1.2050   33.8366    5.1363 C.ar        1 MOL      -0.0016
     20 C20         1.3349   33.3428    6.4554 C.ar        1 MOL      -0.0571
     21 C21         1.9774   32.1170    6.7031 C.ar        1 MOL      -0.0343
     22 C22         0.5526   35.0633    4.8902 C.2         1 MOL       0.0553
     23 C23         8.2526   27.2654    2.1084 C.ar        1 MOL      -0.0571
     24 C24         7.5865   27.7609    0.9691 C.ar        1 MOL      -0.0632
     25 C25         6.1846   27.7211    0.9011 C.ar        1 MOL      -0.0635
     26 C26         5.4590   27.1444    1.9565 C.ar        1 MOL      -0.0632
     27 C27         6.1355   26.5938    3.0633 C.ar        1 MOL      -0.0571
     28 O28         1.0870   35.9839    4.0557 O.co2       1 MOL      -0.5638
     29 O29        -0.6508   35.3243    5.4484 O.co2       1 MOL      -0.5638
     30 H1          5.9329   26.5941    6.6029 H           1 MOL       0.2176
     31 H2          2.6939   29.5768    6.5169 H           1 MOL       0.2187
     32 H3          7.0854   31.1500    4.1093 H           1 MOL       0.0849
     33 H4          8.0339   29.0190    4.8091 H           1 MOL       0.0586
     34 H5          7.9444   25.8104    7.7431 H           1 MOL       0.0537
     35 H6         10.0536   24.6958    7.4502 H           1 MOL       0.0591
     36 H7         11.0774   24.5926    5.2595 H           1 MOL       0.0524
     37 H8          9.9238   25.4479    3.3397 H           1 MOL       0.0594
     38 H9          2.7009   31.2949    3.5219 H           1 MOL       0.0545
     39 H10         1.6131   33.3842    3.0989 H           1 MOL       0.0622
     40 H11         0.9860   33.8833    7.2487 H           1 MOL       0.0622
     41 H12         2.0765   31.7922    7.6681 H           1 MOL       0.0545
     42 H13         9.2691   27.3584    2.1456 H           1 MOL       0.0606
     43 H14         8.1172   28.1855    0.2058 H           1 MOL       0.0613
     44 H15         5.6980   28.1221    0.0960 H           1 MOL       0.0603
     45 H16         4.4370   27.1276    1.9128 H           1 MOL       0.0613
     46 H17         5.5818   26.1299    3.7864 H           1 MOL       0.0606
@<TRIPOS>BOND
     1     1     5  ar
     2     1     6  ar
     3     6     2  ar
     4     2     7  ar
     5     7     3   1
     6     3     9   1
     7     6     4   1
     8     4    16   1
     9     5     8  ar
    10     7     8  ar
    11     9    10  ar
    12     9    14  ar
    13    10    11  ar
    14    11    12  ar
    15    12    13  ar
    16    13    14  ar
    17    14    15   1
    18    15    23  ar
    19    15    27  ar
    20    16    17  ar
    21    16    21  ar
    22    17    18  ar
    23    18    19  ar
    24    19    20  ar
    25    19    22   1
    26    20    21  ar
    27    22    28  ar
    28    22    29  ar
    29    23    24  ar
    30    24    25  ar
    31    25    26  ar
    32    26    27  ar
    33     3    30   1
    34     4    31   1
    35     5    32   1
    36     8    33   1
    37    10    34   1
    38    11    35   1
    39    12    36   1
    40    13    37   1
    41    17    38   1
    42    18    39   1
    43    20    40   1
    44    21    41   1
    45    23    42   1
    46    24    43   1
    47    25    44   1
    48    26    45   1
    49    27    46   1
@<TRIPOS>SUBSTRUCTURE
     1  MOL      5

