@<TRIPOS>MOLECULE
3uo4_ligand_043
    46    49
SMALL
GAST_HUCK
****
This file was generated by PARSER (from files_GN.cpp)

@<TRIPOS>ATOM
      1 N01         3.3606   31.7828    0.7147 N.ar        1 MOL      -0.2685
      2 N02         5.4278   31.0693    1.5291 N.ar        1 MOL      -0.2339
      3 N03         6.7997   29.5792    0.3977 N.pl3       1 MOL      -0.2537
      4 N04         4.2072   32.6197    2.7861 N.pl3       1 MOL      -0.2427
      5 C05         3.4755   30.9998   -0.3789 C.ar        1 MOL       0.0015
      6 C06         4.3171   31.8433    1.6792 C.ar        1 MOL       0.1962
      7 C07         5.6287   30.2637    0.4508 C.ar        1 MOL       0.1353
      8 C08         4.6173   30.2047   -0.5346 C.ar        1 MOL      -0.0013
      9 C09         7.2629   28.8317   -0.6493 C.ar        1 MOL       0.0745
     10 C10         7.5214   27.4718   -0.3724 C.ar        1 MOL      -0.0363
     11 C11         7.9275   26.5969   -1.3915 C.ar        1 MOL      -0.0708
     12 C12         8.1004   27.0751   -2.6990 C.ar        1 MOL      -0.0722
     13 C13         7.8903   28.4374   -2.9795 C.ar        1 MOL      -0.0625
     14 C14         7.4819   29.3456   -1.9663 C.ar        1 MOL       0.0075
     15 C15         7.2987   30.7299   -2.2927 C.ar        1 MOL      -0.0223
     16 C16         3.1766   33.4664    3.1026 C.ar        1 MOL       0.0684
     17 C17         2.7660   33.5521    4.4488 C.ar        1 MOL      -0.0343
     18 C18         1.6788   34.3679    4.8206 C.ar        1 MOL      -0.0571
     19 C19         0.9835   35.1400    3.8575 C.ar        1 MOL      -0.0016
     20 C20         1.4338   35.0860    2.5186 C.ar        1 MOL      -0.0571
     21 C21         2.5220   34.2790    2.1501 C.ar        1 MOL      -0.0343
     22 C22        -0.1442   35.9322    4.2071 C.2         1 MOL       0.0553
     23 C23         7.8395   31.7613   -1.4817 C.ar        1 MOL      -0.0571
     24 C24         7.5687   33.1156   -1.7541 C.ar        1 MOL      -0.0632
     25 C25         6.7786   33.4646   -2.8620 C.ar        1 MOL      -0.0635
     26 C26         6.2590   32.4600   -3.6960 C.ar        1 MOL      -0.0632
     27 C27         6.5167   31.1066   -3.4133 C.ar        1 MOL      -0.0571
     28 O28        -0.8274   35.7295    5.3598 O.co2       1 MOL      -0.5638
     29 O29        -0.6561   36.8471    3.3469 O.co2       1 MOL      -0.5638
     30 H1          7.3526   29.5985    1.1935 H           1 MOL       0.2176
     31 H2          4.8907   32.4990    3.4661 H           1 MOL       0.2187
     32 H3          2.7396   30.9933   -1.0859 H           1 MOL       0.0849
     33 H4          4.6996   29.5890   -1.3456 H           1 MOL       0.0586
     34 H5          7.3832   27.1018    0.5708 H           1 MOL       0.0537
     35 H6          8.0887   25.6081   -1.1839 H           1 MOL       0.0591
     36 H7          8.3888   26.4347   -3.4436 H           1 MOL       0.0524
     37 H8          8.0524   28.7621   -3.9378 H           1 MOL       0.0594
     38 H9          3.2412   32.9925    5.1615 H           1 MOL       0.0545
     39 H10         1.3953   34.3828    5.8023 H           1 MOL       0.0622
     40 H11         0.9553   35.6073    1.7849 H           1 MOL       0.0622
     41 H12         2.8279   34.2882    1.1758 H           1 MOL       0.0545
     42 H13         8.4310   31.5364   -0.6790 H           1 MOL       0.0606
     43 H14         7.9482   33.8490   -1.1509 H           1 MOL       0.0613
     44 H15         6.5895   34.4534   -3.0682 H           1 MOL       0.0603
     45 H16         5.6870   32.7140   -4.5043 H           1 MOL       0.0613
     46 H17         6.1005   30.3969   -4.0193 H           1 MOL       0.0606
@<TRIPOS>BOND
     1     1     5  ar
     2     1     6  ar
     3     6     2  ar
     4     2     7  ar
     5     7     3   1
     6     3     9   1
     7     6     4   1
     8     4    16   1
     9     5     8  ar
    10     7     8  ar
    11     9    10  ar
    12     9    14  ar
    13    10    11  ar
    14    11    12  ar
    15    12    13  ar
    16    13    14  ar
    17    14    15   1
    18    15    23  ar
    19    15    27  ar
    20    16    17  ar
    21    16    21  ar
    22    17    18  ar
    23    18    19  ar
    24    19    20  ar
    25    19    22   1
    26    20    21  ar
    27    22    28  ar
    28    22    29  ar
    29    23    24  ar
    30    24    25  ar
    31    25    26  ar
    32    26    27  ar
    33     3    30   1
    34     4    31   1
    35     5    32   1
    36     8    33   1
    37    10    34   1
    38    11    35   1
    39    12    36   1
    40    13    37   1
    41    17    38   1
    42    18    39   1
    43    20    40   1
    44    21    41   1
    45    23    42   1
    46    24    43   1
    47    25    44   1
    48    26    45   1
    49    27    46   1
@<TRIPOS>SUBSTRUCTURE
     1  MOL      5

