@<TRIPOS>MOLECULE
3uo4_ligand_046
    46    49
SMALL
GAST_HUCK
****
This file was generated by PARSER (from files_GN.cpp)

@<TRIPOS>ATOM
      1 N01         5.6635   30.4202    6.6676 N.ar        1 MOL      -0.2685
      2 N02         5.5033   30.5702    4.3404 N.ar        1 MOL      -0.2339
      3 N03         6.8544   29.3801    2.8775 N.pl3       1 MOL      -0.2537
      4 N04         4.0037   31.7584    5.8093 N.pl3       1 MOL      -0.2427
      5 C05         6.7181   29.5685    6.5699 C.ar        1 MOL       0.0015
      6 C06         5.0536   30.9388    5.5738 C.ar        1 MOL       0.1962
      7 C07         6.5396   29.6954    4.1581 C.ar        1 MOL       0.1353
      8 C08         7.1934   29.2010    5.3079 C.ar        1 MOL      -0.0013
      9 C09         7.7695   28.4590    2.4046 C.ar        1 MOL       0.0745
     10 C10         7.8993   27.1715    2.9960 C.ar        1 MOL      -0.0363
     11 C11         8.8725   26.2665    2.5634 C.ar        1 MOL      -0.0708
     12 C12         9.7153   26.6040    1.4882 C.ar        1 MOL      -0.0722
     13 C13         9.5635   27.8458    0.8461 C.ar        1 MOL      -0.0625
     14 C14         8.5793   28.7668    1.2775 C.ar        1 MOL       0.0075
     15 C15         8.4378   29.9862    0.5565 C.ar        1 MOL      -0.0223
     16 C16         3.2587   32.4675    4.9139 C.ar        1 MOL       0.0684
     17 C17         1.8648   32.5415    5.1225 C.ar        1 MOL      -0.0343
     18 C18         1.0440   33.2869    4.2526 C.ar        1 MOL      -0.0571
     19 C19         1.6169   33.9938    3.1745 C.ar        1 MOL      -0.0016
     20 C20         3.0105   33.9557    2.9828 C.ar        1 MOL      -0.0571
     21 C21         3.8272   33.1984    3.8459 C.ar        1 MOL      -0.0343
     22 C22         0.8238   34.7204    2.2760 C.2         1 MOL       0.0553
     23 C23         7.3625   30.1554   -0.3476 C.ar        1 MOL      -0.0571
     24 C24         7.2270   31.3519   -1.0801 C.ar        1 MOL      -0.0632
     25 C25         8.1608   32.3904   -0.9130 C.ar        1 MOL      -0.0635
     26 C26         9.2354   32.2294   -0.0201 C.ar        1 MOL      -0.0632
     27 C27         9.3789   31.0305    0.7062 C.ar        1 MOL      -0.0571
     28 O28        -0.0806   34.0694    1.5133 O.co2       1 MOL      -0.5638
     29 O29         0.6452   36.0425    2.4835 O.co2       1 MOL      -0.5638
     30 H1          6.4146   29.9098    2.1960 H           1 MOL       0.2176
     31 H2          3.7039   31.8008    6.7304 H           1 MOL       0.2187
     32 H3          7.1571   29.2085    7.4170 H           1 MOL       0.0849
     33 H4          8.0086   28.5850    5.2416 H           1 MOL       0.0586
     34 H5          7.2715   26.8860    3.7523 H           1 MOL       0.0537
     35 H6          8.9920   25.3673    3.0386 H           1 MOL       0.0591
     36 H7         10.4297   25.9444    1.1739 H           1 MOL       0.0524
     37 H8         10.1779   28.0664    0.0612 H           1 MOL       0.0594
     38 H9          1.4340   32.0385    5.9058 H           1 MOL       0.0545
     39 H10         0.0351   33.3095    4.4211 H           1 MOL       0.0622
     40 H11         3.4456   34.4703    2.2131 H           1 MOL       0.0622
     41 H12         4.8394   33.2098    3.7034 H           1 MOL       0.0545
     42 H13         6.6772   29.4095   -0.4863 H           1 MOL       0.0606
     43 H14         6.4493   31.4656   -1.7343 H           1 MOL       0.0613
     44 H15         8.0565   33.2608   -1.4395 H           1 MOL       0.0603
     45 H16         9.9117   32.9834    0.1042 H           1 MOL       0.0613
     46 H17        10.1690   30.9300    1.3452 H           1 MOL       0.0606
@<TRIPOS>BOND
     1     1     5  ar
     2     1     6  ar
     3     6     2  ar
     4     2     7  ar
     5     7     3   1
     6     3     9   1
     7     6     4   1
     8     4    16   1
     9     5     8  ar
    10     7     8  ar
    11     9    10  ar
    12     9    14  ar
    13    10    11  ar
    14    11    12  ar
    15    12    13  ar
    16    13    14  ar
    17    14    15   1
    18    15    23  ar
    19    15    27  ar
    20    16    17  ar
    21    16    21  ar
    22    17    18  ar
    23    18    19  ar
    24    19    20  ar
    25    19    22   1
    26    20    21  ar
    27    22    28  ar
    28    22    29  ar
    29    23    24  ar
    30    24    25  ar
    31    25    26  ar
    32    26    27  ar
    33     3    30   1
    34     4    31   1
    35     5    32   1
    36     8    33   1
    37    10    34   1
    38    11    35   1
    39    12    36   1
    40    13    37   1
    41    17    38   1
    42    18    39   1
    43    20    40   1
    44    21    41   1
    45    23    42   1
    46    24    43   1
    47    25    44   1
    48    26    45   1
    49    27    46   1
@<TRIPOS>SUBSTRUCTURE
     1  MOL      5

