@<TRIPOS>MOLECULE
3uo4_ligand_016
    46    49
SMALL
GAST_HUCK
****
This file was generated by PARSER (from files_GN.cpp)

@<TRIPOS>ATOM
      1 N01         4.2059   29.3742    5.1381 N.ar        1 MOL      -0.2685
      2 N02         4.3294   30.9896    3.4514 N.ar        1 MOL      -0.2339
      3 N03         5.8635   30.9326    1.7197 N.pl3       1 MOL      -0.2537
      4 N04         2.7229   31.1288    5.2418 N.pl3       1 MOL      -0.2427
      5 C05         5.2368   28.6826    4.5943 C.ar        1 MOL       0.0015
      6 C06         3.7339   30.5186    4.5842 C.ar        1 MOL       0.1962
      7 C07         5.3779   30.3649    2.8510 C.ar        1 MOL       0.1353
      8 C08         5.8554   29.1599    3.4259 C.ar        1 MOL      -0.0013
      9 C09         6.9208   30.5126    0.9631 C.ar        1 MOL       0.0745
     10 C10         8.2097   30.4004    1.5384 C.ar        1 MOL      -0.0363
     11 C11         9.3112   29.9952    0.7642 C.ar        1 MOL      -0.0708
     12 C12         9.1413   29.7252   -0.6032 C.ar        1 MOL      -0.0722
     13 C13         7.8770   29.8675   -1.1975 C.ar        1 MOL      -0.0625
     14 C14         6.7579   30.2739   -0.4299 C.ar        1 MOL       0.0075
     15 C15         5.4994   30.4048   -1.0717 C.ar        1 MOL      -0.0223
     16 C16         2.0625   32.2821    4.9306 C.ar        1 MOL       0.0684
     17 C17         1.7782   32.7072    3.6122 C.ar        1 MOL      -0.0343
     18 C18         1.0613   33.8954    3.3798 C.ar        1 MOL      -0.0571
     19 C19         0.5741   34.6747    4.4576 C.ar        1 MOL      -0.0016
     20 C20         0.8531   34.2428    5.7756 C.ar        1 MOL      -0.0571
     21 C21         1.5754   33.0576    6.0040 C.ar        1 MOL      -0.0343
     22 C22        -0.1994   35.8369    4.2246 C.2         1 MOL       0.0553
     23 C23         4.4168   29.5558   -0.7360 C.ar        1 MOL      -0.0571
     24 C24         3.1731   29.6998   -1.3756 C.ar        1 MOL      -0.0632
     25 C25         2.9938   30.6946   -2.3542 C.ar        1 MOL      -0.0635
     26 C26         4.0614   31.5449   -2.6934 C.ar        1 MOL      -0.0632
     27 C27         5.3075   31.3992   -2.0603 C.ar        1 MOL      -0.0571
     28 O28         0.0241   36.6249    3.1443 O.co2       1 MOL      -0.5638
     29 O29        -1.2158   36.1799    5.0530 O.co2       1 MOL      -0.5638
     30 H1          5.3481   31.6735    1.3630 H           1 MOL       0.2176
     31 H2          2.4974   30.7328    6.0986 H           1 MOL       0.2187
     32 H3          5.5548   27.8191    5.0375 H           1 MOL       0.0849
     33 H4          6.6168   28.6229    3.0044 H           1 MOL       0.0586
     34 H5          8.3534   30.6218    2.5251 H           1 MOL       0.0537
     35 H6         10.2355   29.9128    1.1913 H           1 MOL       0.0591
     36 H7          9.9442   29.4252   -1.1669 H           1 MOL       0.0524
     37 H8          7.7784   29.6674   -2.1967 H           1 MOL       0.0594
     38 H9          2.0554   32.1352    2.8143 H           1 MOL       0.0545
     39 H10         0.8543   34.1663    2.4134 H           1 MOL       0.0622
     40 H11         0.5376   34.7923    6.5770 H           1 MOL       0.0622
     41 H12         1.7616   32.7709    6.9698 H           1 MOL       0.0545
     42 H13         4.5323   28.8227   -0.0308 H           1 MOL       0.0606
     43 H14         2.3997   29.0746   -1.1401 H           1 MOL       0.0613
     44 H15         2.0904   30.7992   -2.8200 H           1 MOL       0.0603
     45 H16         3.9311   32.2726   -3.4011 H           1 MOL       0.0613
     46 H17         6.0719   32.0337   -2.3121 H           1 MOL       0.0606
@<TRIPOS>BOND
     1     1     5  ar
     2     1     6  ar
     3     6     2  ar
     4     2     7  ar
     5     7     3   1
     6     3     9   1
     7     6     4   1
     8     4    16   1
     9     5     8  ar
    10     7     8  ar
    11     9    10  ar
    12     9    14  ar
    13    10    11  ar
    14    11    12  ar
    15    12    13  ar
    16    13    14  ar
    17    14    15   1
    18    15    23  ar
    19    15    27  ar
    20    16    17  ar
    21    16    21  ar
    22    17    18  ar
    23    18    19  ar
    24    19    20  ar
    25    19    22   1
    26    20    21  ar
    27    22    28  ar
    28    22    29  ar
    29    23    24  ar
    30    24    25  ar
    31    25    26  ar
    32    26    27  ar
    33     3    30   1
    34     4    31   1
    35     5    32   1
    36     8    33   1
    37    10    34   1
    38    11    35   1
    39    12    36   1
    40    13    37   1
    41    17    38   1
    42    18    39   1
    43    20    40   1
    44    21    41   1
    45    23    42   1
    46    24    43   1
    47    25    44   1
    48    26    45   1
    49    27    46   1
@<TRIPOS>SUBSTRUCTURE
     1  MOL      5

