@<TRIPOS>MOLECULE
3uo4_ligand_004
    46    49
SMALL
GAST_HUCK
****
This file was generated by PARSER (from files_GN.cpp)

@<TRIPOS>ATOM
      1 N01         3.7947   31.7021    2.5876 N.ar        1 MOL      -0.2685
      2 N02         4.6204   30.3822    4.3306 N.ar        1 MOL      -0.2339
      3 N03         6.3365   28.8305    4.0567 N.pl3       1 MOL      -0.2537
      4 N04         2.9656   31.9501    4.8129 N.pl3       1 MOL      -0.2427
      5 C05         4.6097   31.0938    1.6924 C.ar        1 MOL       0.0015
      6 C06         3.7840   31.3645    3.9074 C.ar        1 MOL       0.1962
      7 C07         5.4760   29.7230    3.5004 C.ar        1 MOL       0.1353
      8 C08         5.4697   30.0716    2.1292 C.ar        1 MOL      -0.0013
      9 C09         7.3105   28.1249    3.3998 C.ar        1 MOL       0.0745
     10 C10         6.9113   27.1568    2.4498 C.ar        1 MOL      -0.0363
     11 C11         7.8633   26.3995    1.7526 C.ar        1 MOL      -0.0708
     12 C12         9.2289   26.5809    2.0134 C.ar        1 MOL      -0.0722
     13 C13         9.6410   27.5336    2.9630 C.ar        1 MOL      -0.0625
     14 C14         8.6958   28.3156    3.6749 C.ar        1 MOL       0.0075
     15 C15         9.1729   29.3085    4.5893 C.ar        1 MOL      -0.0223
     16 C16         2.1219   33.0068    4.6252 C.ar        1 MOL       0.0684
     17 C17         0.9229   33.0392    5.3681 C.ar        1 MOL      -0.0343
     18 C18        -0.0026   34.0830    5.1984 C.ar        1 MOL      -0.0571
     19 C19         0.2493   35.1464    4.2984 C.ar        1 MOL      -0.0016
     20 C20         1.4756   35.1358    3.5896 C.ar        1 MOL      -0.0571
     21 C21         2.4021   34.0918    3.7630 C.ar        1 MOL      -0.0343
     22 C22        -0.6945   36.1894    4.1141 C.2         1 MOL       0.0553
     23 C23         8.7712   30.6616    4.4608 C.ar        1 MOL      -0.0571
     24 C24         9.2294   31.6443    5.3595 C.ar        1 MOL      -0.0632
     25 C25        10.1022   31.2905    6.4014 C.ar        1 MOL      -0.0635
     26 C26        10.5457   29.9622    6.5225 C.ar        1 MOL      -0.0632
     27 C27        10.0864   28.9792    5.6226 C.ar        1 MOL      -0.0571
     28 O28        -0.5507   37.1167    3.1338 O.co2       1 MOL      -0.5638
     29 O29        -1.8119   36.2694    4.8755 O.co2       1 MOL      -0.5638
     30 H1          6.3353   28.7886    5.0274 H           1 MOL       0.2176
     31 H2          2.9344   31.5281    5.6866 H           1 MOL       0.2187
     32 H3          4.6032   31.3878    0.7174 H           1 MOL       0.0849
     33 H4          6.0955   29.6257    1.4560 H           1 MOL       0.0586
     34 H5          5.9201   27.0039    2.2545 H           1 MOL       0.0537
     35 H6          7.5660   25.7174    1.0512 H           1 MOL       0.0591
     36 H7          9.9246   26.0315    1.5009 H           1 MOL       0.0524
     37 H8         10.6468   27.6686    3.1048 H           1 MOL       0.0594
     38 H9          0.7056   32.2789    6.0182 H           1 MOL       0.0545
     39 H10        -0.8737   34.0443    5.7315 H           1 MOL       0.0622
     40 H11         1.7149   35.8947    2.9408 H           1 MOL       0.0622
     41 H12         3.2919   34.1444    3.2650 H           1 MOL       0.0545
     42 H13         8.1518   30.9479    3.6971 H           1 MOL       0.0606
     43 H14         8.9296   32.6159    5.2453 H           1 MOL       0.0613
     44 H15        10.4166   32.0023    7.0624 H           1 MOL       0.0603
     45 H16        11.1976   29.7115    7.2670 H           1 MOL       0.0613
     46 H17        10.4142   28.0158    5.7413 H           1 MOL       0.0606
@<TRIPOS>BOND
     1     1     5  ar
     2     1     6  ar
     3     6     2  ar
     4     2     7  ar
     5     7     3   1
     6     3     9   1
     7     6     4   1
     8     4    16   1
     9     5     8  ar
    10     7     8  ar
    11     9    10  ar
    12     9    14  ar
    13    10    11  ar
    14    11    12  ar
    15    12    13  ar
    16    13    14  ar
    17    14    15   1
    18    15    23  ar
    19    15    27  ar
    20    16    17  ar
    21    16    21  ar
    22    17    18  ar
    23    18    19  ar
    24    19    20  ar
    25    19    22   1
    26    20    21  ar
    27    22    28  ar
    28    22    29  ar
    29    23    24  ar
    30    24    25  ar
    31    25    26  ar
    32    26    27  ar
    33     3    30   1
    34     4    31   1
    35     5    32   1
    36     8    33   1
    37    10    34   1
    38    11    35   1
    39    12    36   1
    40    13    37   1
    41    17    38   1
    42    18    39   1
    43    20    40   1
    44    21    41   1
    45    23    42   1
    46    24    43   1
    47    25    44   1
    48    26    45   1
    49    27    46   1
@<TRIPOS>SUBSTRUCTURE
     1  MOL      5

