@<TRIPOS>MOLECULE
3uo4_ligand_073
    46    49
SMALL
GAST_HUCK
****
This file was generated by PARSER (from files_GN.cpp)

@<TRIPOS>ATOM
      1 N01         2.3490   32.5912    0.7441 N.ar        1 MOL      -0.2685
      2 N02         4.5605   32.2388    1.4498 N.ar        1 MOL      -0.2339
      3 N03         6.0536   30.8911    0.2834 N.pl3       1 MOL      -0.2537
      4 N04         3.1909   33.6141    2.7295 N.pl3       1 MOL      -0.2427
      5 C05         2.5389   31.8019   -0.3401 C.ar        1 MOL       0.0015
      6 C06         3.3501   32.8332    1.6423 C.ar        1 MOL       0.1962
      7 C07         4.8138   31.4395    0.3833 C.ar        1 MOL       0.1353
      8 C08         3.7932   31.2138   -0.5640 C.ar        1 MOL      -0.0013
      9 C09         6.4952   30.1122   -0.7505 C.ar        1 MOL       0.0745
     10 C10         6.7767   30.7509   -1.9733 C.ar        1 MOL      -0.0363
     11 C11         7.2971   30.0143   -3.0507 C.ar        1 MOL      -0.0708
     12 C12         7.5155   28.6358   -2.9241 C.ar        1 MOL      -0.0722
     13 C13         7.2325   27.9938   -1.7082 C.ar        1 MOL      -0.0625
     14 C14         6.7180   28.7170   -0.6081 C.ar        1 MOL       0.0075
     15 C15         6.4458   28.0370    0.6065 C.ar        1 MOL      -0.0223
     16 C16         2.0928   34.3428    3.0738 C.ar        1 MOL       0.0684
     17 C17         1.9048   34.6428    4.4326 C.ar        1 MOL      -0.0343
     18 C18         0.8007   35.3969    4.8613 C.ar        1 MOL      -0.0571
     19 C19        -0.1133   35.9056    3.9226 C.ar        1 MOL      -0.0016
     20 C20         0.0751   35.6302    2.5608 C.ar        1 MOL      -0.0571
     21 C21         1.1666   34.8500    2.1432 C.ar        1 MOL      -0.0343
     22 C22        -1.2174   36.6668    4.3347 C.2         1 MOL       0.0553
     23 C23         7.4899   27.4293    1.3401 C.ar        1 MOL      -0.0571
     24 C24         7.2141   26.7754    2.5536 C.ar        1 MOL      -0.0632
     25 C25         5.8949   26.7057    3.0330 C.ar        1 MOL      -0.0635
     26 C26         4.8439   27.2724    2.2902 C.ar        1 MOL      -0.0632
     27 C27         5.1191   27.9346    1.0825 C.ar        1 MOL      -0.0571
     28 O28        -2.0998   36.1372    5.2232 O.co2       1 MOL      -0.5638
     29 O29        -1.6000   37.7704    3.6305 O.co2       1 MOL      -0.5638
     30 H1          6.6952   31.0895    0.9946 H           1 MOL       0.2176
     31 H2          3.9233   33.6017    3.3773 H           1 MOL       0.2187
     32 H3          1.7621   31.6427   -0.9937 H           1 MOL       0.0849
     33 H4          3.9216   30.6097   -1.3899 H           1 MOL       0.0586
     34 H5          6.6288   31.7610   -2.0767 H           1 MOL       0.0537
     35 H6          7.5456   30.4982   -3.9177 H           1 MOL       0.0591
     36 H7          7.9070   28.1072   -3.7014 H           1 MOL       0.0524
     37 H8          7.4157   26.9831   -1.6274 H           1 MOL       0.0594
     38 H9          2.5890   34.3271    5.1384 H           1 MOL       0.0545
     39 H10         0.6935   35.6091    5.8672 H           1 MOL       0.0622
     40 H11        -0.5961   35.9618    1.8471 H           1 MOL       0.0622
     41 H12         1.2791   34.6819    1.1346 H           1 MOL       0.0545
     42 H13         8.4536   27.4606    0.9959 H           1 MOL       0.0606
     43 H14         7.9749   26.3362    3.0802 H           1 MOL       0.0613
     44 H15         5.6947   26.2092    3.9020 H           1 MOL       0.0603
     45 H16         3.8788   27.1907    2.6233 H           1 MOL       0.0613
     46 H17         4.3408   28.3169    0.5400 H           1 MOL       0.0606
@<TRIPOS>BOND
     1     1     5  ar
     2     1     6  ar
     3     6     2  ar
     4     2     7  ar
     5     7     3   1
     6     3     9   1
     7     6     4   1
     8     4    16   1
     9     5     8  ar
    10     7     8  ar
    11     9    10  ar
    12     9    14  ar
    13    10    11  ar
    14    11    12  ar
    15    12    13  ar
    16    13    14  ar
    17    14    15   1
    18    15    23  ar
    19    15    27  ar
    20    16    17  ar
    21    16    21  ar
    22    17    18  ar
    23    18    19  ar
    24    19    20  ar
    25    19    22   1
    26    20    21  ar
    27    22    28  ar
    28    22    29  ar
    29    23    24  ar
    30    24    25  ar
    31    25    26  ar
    32    26    27  ar
    33     3    30   1
    34     4    31   1
    35     5    32   1
    36     8    33   1
    37    10    34   1
    38    11    35   1
    39    12    36   1
    40    13    37   1
    41    17    38   1
    42    18    39   1
    43    20    40   1
    44    21    41   1
    45    23    42   1
    46    24    43   1
    47    25    44   1
    48    26    45   1
    49    27    46   1
@<TRIPOS>SUBSTRUCTURE
     1  MOL      5

