@<TRIPOS>MOLECULE
3uo4_ligand_039
    46    49
SMALL
GAST_HUCK
****
This file was generated by PARSER (from files_GN.cpp)

@<TRIPOS>ATOM
      1 N01         4.5750   33.4886    0.6394 N.ar        1 MOL      -0.2685
      2 N02         5.4804   31.3917    1.1153 N.ar        1 MOL      -0.2339
      3 N03         7.1740   30.4097   -0.1285 N.pl3       1 MOL      -0.2537
      4 N04         3.7511   32.2424    2.4818 N.pl3       1 MOL      -0.2427
      5 C05         5.4297   33.6683   -0.3897 C.ar        1 MOL       0.0015
      6 C06         4.5823   32.3682    1.4161 C.ar        1 MOL       0.1962
      7 C07         6.3598   31.4764    0.0765 C.ar        1 MOL       0.1353
      8 C08         6.3734   32.6657   -0.6909 C.ar        1 MOL      -0.0013
      9 C09         8.0985   30.1697   -1.1183 C.ar        1 MOL       0.0745
     10 C10         7.9151   30.6700   -2.4305 C.ar        1 MOL      -0.0363
     11 C11         8.9005   30.4646   -3.4272 C.ar        1 MOL      -0.0708
     12 C12        10.0533   29.7196   -3.1329 C.ar        1 MOL      -0.0722
     13 C13        10.2131   29.1570   -1.8602 C.ar        1 MOL      -0.0625
     14 C14         9.2325   29.3499   -0.8565 C.ar        1 MOL       0.0075
     15 C15         9.4010   28.6494    0.3607 C.ar        1 MOL      -0.0223
     16 C16         2.7878   33.1424    2.8493 C.ar        1 MOL       0.0684
     17 C17         2.6905   33.5591    4.1955 C.ar        1 MOL      -0.0343
     18 C18         1.7449   34.5273    4.5788 C.ar        1 MOL      -0.0571
     19 C19         0.8583   35.0920    3.6310 C.ar        1 MOL      -0.0016
     20 C20         0.9330   34.6405    2.2921 C.ar        1 MOL      -0.0571
     21 C21         1.8747   33.6772    1.9119 C.ar        1 MOL      -0.0343
     22 C22        -0.0921   36.0680    4.0053 C.2         1 MOL       0.0553
     23 C23        10.1010   29.2089    1.4539 C.ar        1 MOL      -0.0571
     24 C24        10.3219   28.4524    2.6201 C.ar        1 MOL      -0.0632
     25 C25         9.8429   27.1311    2.7052 C.ar        1 MOL      -0.0635
     26 C26         9.1323   26.5727    1.6328 C.ar        1 MOL      -0.0632
     27 C27         8.9097   27.3253    0.4675 C.ar        1 MOL      -0.0571
     28 O28        -0.9071   35.8837    5.0683 O.co2       1 MOL      -0.5638
     29 O29        -0.2857   37.1807    3.2523 O.co2       1 MOL      -0.5638
     30 H1          7.1160   29.7219    0.5546 H           1 MOL       0.2176
     31 H2          3.9119   31.4940    3.0867 H           1 MOL       0.2187
     32 H3          5.3923   34.5292   -0.9345 H           1 MOL       0.0849
     33 H4          7.0384   32.8203   -1.4560 H           1 MOL       0.0586
     34 H5          7.0703   31.1785   -2.6783 H           1 MOL       0.0537
     35 H6          8.7715   30.8687   -4.3607 H           1 MOL       0.0591
     36 H7         10.7677   29.5823   -3.8567 H           1 MOL       0.0524
     37 H8         11.0458   28.5893   -1.6743 H           1 MOL       0.0594
     38 H9          3.3370   33.1861    4.8950 H           1 MOL       0.0545
     39 H10         1.7209   34.8355    5.5567 H           1 MOL       0.0622
     40 H11         0.2779   34.9944    1.5867 H           1 MOL       0.0622
     41 H12         1.8913   33.3566    0.9388 H           1 MOL       0.0545
     42 H13        10.4689   30.1618    1.3985 H           1 MOL       0.0606
     43 H14        10.8363   28.8548    3.4051 H           1 MOL       0.0613
     44 H15        10.0128   26.5792    3.5490 H           1 MOL       0.0603
     45 H16         8.7818   25.6139    1.6942 H           1 MOL       0.0613
     46 H17         8.4021   26.8990   -0.3113 H           1 MOL       0.0606
@<TRIPOS>BOND
     1     1     5  ar
     2     1     6  ar
     3     6     2  ar
     4     2     7  ar
     5     7     3   1
     6     3     9   1
     7     6     4   1
     8     4    16   1
     9     5     8  ar
    10     7     8  ar
    11     9    10  ar
    12     9    14  ar
    13    10    11  ar
    14    11    12  ar
    15    12    13  ar
    16    13    14  ar
    17    14    15   1
    18    15    23  ar
    19    15    27  ar
    20    16    17  ar
    21    16    21  ar
    22    17    18  ar
    23    18    19  ar
    24    19    20  ar
    25    19    22   1
    26    20    21  ar
    27    22    28  ar
    28    22    29  ar
    29    23    24  ar
    30    24    25  ar
    31    25    26  ar
    32    26    27  ar
    33     3    30   1
    34     4    31   1
    35     5    32   1
    36     8    33   1
    37    10    34   1
    38    11    35   1
    39    12    36   1
    40    13    37   1
    41    17    38   1
    42    18    39   1
    43    20    40   1
    44    21    41   1
    45    23    42   1
    46    24    43   1
    47    25    44   1
    48    26    45   1
    49    27    46   1
@<TRIPOS>SUBSTRUCTURE
     1  MOL      5

