@<TRIPOS>MOLECULE
3uo4_ligand_033
    46    49
SMALL
GAST_HUCK
****
This file was generated by PARSER (from files_GN.cpp)

@<TRIPOS>ATOM
      1 N01         5.3845   33.7914   -0.5770 N.ar        1 MOL      -0.2685
      2 N02         4.6484   32.1911    0.9582 N.ar        1 MOL      -0.2339
      3 N03         5.4786   30.0533    1.1261 N.pl3       1 MOL      -0.2537
      4 N04         3.6840   34.3946    0.8656 N.pl3       1 MOL      -0.2427
      5 C05         6.3046   32.9293   -1.0737 C.ar        1 MOL       0.0015
      6 C06         4.5478   33.4469    0.4349 C.ar        1 MOL       0.1962
      7 C07         5.5275   31.2616    0.5066 C.ar        1 MOL       0.1353
      8 C08         6.4075   31.6312   -0.5375 C.ar        1 MOL      -0.0013
      9 C09         6.1747   28.9087    0.8358 C.ar        1 MOL       0.0745
     10 C10         6.1878   28.3981   -0.4828 C.ar        1 MOL      -0.0363
     11 C11         6.8680   27.2076   -0.7902 C.ar        1 MOL      -0.0708
     12 C12         7.5090   26.4913    0.2320 C.ar        1 MOL      -0.0722
     13 C13         7.4417   26.9440    1.5589 C.ar        1 MOL      -0.0625
     14 C14         6.7734   28.1487    1.8815 C.ar        1 MOL       0.0075
     15 C15         6.7267   28.5540    3.2382 C.ar        1 MOL      -0.0223
     16 C16         2.7419   34.2973    1.8477 C.ar        1 MOL       0.0684
     17 C17         2.0720   33.1000    2.1868 C.ar        1 MOL      -0.0343
     18 C18         1.1479   33.0688    3.2436 C.ar        1 MOL      -0.0571
     19 C19         0.8280   34.2396    3.9711 C.ar        1 MOL      -0.0016
     20 C20         1.4426   35.4518    3.5759 C.ar        1 MOL      -0.0571
     21 C21         2.3895   35.4747    2.5389 C.ar        1 MOL      -0.0343
     22 C22        -0.0819   34.1932    5.0580 C.2         1 MOL       0.0553
     23 C23         6.2383   27.6711    4.2317 C.ar        1 MOL      -0.0571
     24 C24         6.2021   28.0638    5.5810 C.ar        1 MOL      -0.0632
     25 C25         6.6642   29.3393    5.9544 C.ar        1 MOL      -0.0635
     26 C26         7.1541   30.2251    4.9766 C.ar        1 MOL      -0.0632
     27 C27         7.1825   29.8357    3.6247 C.ar        1 MOL      -0.0571
     28 O28        -0.0670   33.1750    5.9538 O.co2       1 MOL      -0.5638
     29 O29        -1.0078   35.1634    5.2469 O.co2       1 MOL      -0.5638
     30 H1          4.9040   30.0074    1.9026 H           1 MOL       0.2176
     31 H2          3.7977   35.2714    0.4710 H           1 MOL       0.2187
     32 H3          6.9168   33.2271   -1.8342 H           1 MOL       0.0849
     33 H4          7.1368   30.9982   -0.8777 H           1 MOL       0.0586
     34 H5          5.6808   28.8771   -1.2269 H           1 MOL       0.0537
     35 H6          6.8748   26.8507   -1.7460 H           1 MOL       0.0591
     36 H7          8.0064   25.6226    0.0153 H           1 MOL       0.0524
     37 H8          7.8922   26.3854    2.2902 H           1 MOL       0.0594
     38 H9          2.2432   32.2433    1.6619 H           1 MOL       0.0545
     39 H10         0.7028   32.1793    3.4698 H           1 MOL       0.0622
     40 H11         1.2382   36.3251    4.0714 H           1 MOL       0.0622
     41 H12         2.8583   36.3561    2.3139 H           1 MOL       0.0545
     42 H13         5.9029   26.7380    3.9782 H           1 MOL       0.0606
     43 H14         5.8444   27.4226    6.2911 H           1 MOL       0.0613
     44 H15         6.6407   29.6240    6.9372 H           1 MOL       0.0603
     45 H16         7.4956   31.1475    5.2507 H           1 MOL       0.0613
     46 H17         7.5552   30.4858    2.9284 H           1 MOL       0.0606
@<TRIPOS>BOND
     1     1     5  ar
     2     1     6  ar
     3     6     2  ar
     4     2     7  ar
     5     7     3   1
     6     3     9   1
     7     6     4   1
     8     4    16   1
     9     5     8  ar
    10     7     8  ar
    11     9    10  ar
    12     9    14  ar
    13    10    11  ar
    14    11    12  ar
    15    12    13  ar
    16    13    14  ar
    17    14    15   1
    18    15    23  ar
    19    15    27  ar
    20    16    17  ar
    21    16    21  ar
    22    17    18  ar
    23    18    19  ar
    24    19    20  ar
    25    19    22   1
    26    20    21  ar
    27    22    28  ar
    28    22    29  ar
    29    23    24  ar
    30    24    25  ar
    31    25    26  ar
    32    26    27  ar
    33     3    30   1
    34     4    31   1
    35     5    32   1
    36     8    33   1
    37    10    34   1
    38    11    35   1
    39    12    36   1
    40    13    37   1
    41    17    38   1
    42    18    39   1
    43    20    40   1
    44    21    41   1
    45    23    42   1
    46    24    43   1
    47    25    44   1
    48    26    45   1
    49    27    46   1
@<TRIPOS>SUBSTRUCTURE
     1  MOL      5

