@<TRIPOS>MOLECULE
3uo4_ligand_071
    46    49
SMALL
GAST_HUCK
****
This file was generated by PARSER (from files_GN.cpp)

@<TRIPOS>ATOM
      1 N01         5.2476   34.0603    0.3028 N.ar        1 MOL      -0.2685
      2 N02         2.9780   33.6150   -0.0233 N.ar        1 MOL      -0.2339
      3 N03         2.0433   33.2306   -2.1014 N.pl3       1 MOL      -0.2537
      4 N04         3.9133   33.7831    2.1682 N.pl3       1 MOL      -0.2427
      5 C05         5.4701   34.0658   -1.0360 C.ar        1 MOL       0.0015
      6 C06         4.0168   33.8390    0.8242 C.ar        1 MOL       0.1962
      7 C07         3.1308   33.5704   -1.3749 C.ar        1 MOL       0.1353
      8 C08         4.4081   33.8250   -1.9209 C.ar        1 MOL      -0.0013
      9 C09         1.9792   32.9155   -3.4291 C.ar        1 MOL       0.0745
     10 C10         0.8977   33.4847   -4.1351 C.ar        1 MOL      -0.0363
     11 C11         0.7218   33.2361   -5.5072 C.ar        1 MOL      -0.0708
     12 C12         1.6242   32.4004   -6.1863 C.ar        1 MOL      -0.0722
     13 C13         2.6963   31.8115   -5.4919 C.ar        1 MOL      -0.0625
     14 C14         2.8823   32.0384   -4.1014 C.ar        1 MOL       0.0075
     15 C15         3.9479   31.3875   -3.4210 C.ar        1 MOL      -0.0223
     16 C16         2.7605   33.7659    2.8737 C.ar        1 MOL       0.0684
     17 C17         1.8913   34.8739    2.8684 C.ar        1 MOL      -0.0343
     18 C18         0.7802   34.9064    3.7224 C.ar        1 MOL      -0.0571
     19 C19         0.4891   33.8143    4.5750 C.ar        1 MOL      -0.0016
     20 C20         1.3577   32.6951    4.5581 C.ar        1 MOL      -0.0571
     21 C21         2.4950   32.6816    3.7328 C.ar        1 MOL      -0.0343
     22 C22        -0.6294   33.8554    5.4409 C.2         1 MOL       0.0553
     23 C23         3.7374   30.7592   -2.1671 C.ar        1 MOL      -0.0571
     24 C24         4.8114   30.1940   -1.4503 C.ar        1 MOL      -0.0632
     25 C25         6.1112   30.2234   -1.9904 C.ar        1 MOL      -0.0635
     26 C26         6.3342   30.8230   -3.2429 C.ar        1 MOL      -0.0632
     27 C27         5.2593   31.3919   -3.9555 C.ar        1 MOL      -0.0571
     28 O28        -0.9268   32.8328    6.2739 O.co2       1 MOL      -0.5638
     29 O29        -1.4864   34.8980    5.4291 O.co2       1 MOL      -0.5638
     30 H1          1.1965   33.2274   -1.6197 H           1 MOL       0.2176
     31 H2          4.7400   33.7346    2.6764 H           1 MOL       0.2187
     32 H3          6.4111   34.2372   -1.3960 H           1 MOL       0.0849
     33 H4          4.5686   33.8191   -2.9307 H           1 MOL       0.0586
     34 H5          0.2349   34.1024   -3.6593 H           1 MOL       0.0537
     35 H6         -0.0503   33.6741   -6.0106 H           1 MOL       0.0591
     36 H7          1.4914   32.2153   -7.1823 H           1 MOL       0.0524
     37 H8          3.3246   31.1933   -6.0105 H           1 MOL       0.0594
     38 H9          2.0893   35.6843    2.2732 H           1 MOL       0.0545
     39 H10         0.1895   35.7415    3.7164 H           1 MOL       0.0622
     40 H11         1.1842   31.8849    5.1596 H           1 MOL       0.0622
     41 H12         3.1260   31.8742    3.7578 H           1 MOL       0.0545
     42 H13         2.8010   30.7175   -1.7548 H           1 MOL       0.0606
     43 H14         4.6504   29.7619   -0.5393 H           1 MOL       0.0613
     44 H15         6.8910   29.8101   -1.4740 H           1 MOL       0.0603
     45 H16         7.2794   30.8632   -3.6281 H           1 MOL       0.0613
     46 H17         5.4538   31.8441   -4.8522 H           1 MOL       0.0606
@<TRIPOS>BOND
     1     1     5  ar
     2     1     6  ar
     3     6     2  ar
     4     2     7  ar
     5     7     3   1
     6     3     9   1
     7     6     4   1
     8     4    16   1
     9     5     8  ar
    10     7     8  ar
    11     9    10  ar
    12     9    14  ar
    13    10    11  ar
    14    11    12  ar
    15    12    13  ar
    16    13    14  ar
    17    14    15   1
    18    15    23  ar
    19    15    27  ar
    20    16    17  ar
    21    16    21  ar
    22    17    18  ar
    23    18    19  ar
    24    19    20  ar
    25    19    22   1
    26    20    21  ar
    27    22    28  ar
    28    22    29  ar
    29    23    24  ar
    30    24    25  ar
    31    25    26  ar
    32    26    27  ar
    33     3    30   1
    34     4    31   1
    35     5    32   1
    36     8    33   1
    37    10    34   1
    38    11    35   1
    39    12    36   1
    40    13    37   1
    41    17    38   1
    42    18    39   1
    43    20    40   1
    44    21    41   1
    45    23    42   1
    46    24    43   1
    47    25    44   1
    48    26    45   1
    49    27    46   1
@<TRIPOS>SUBSTRUCTURE
     1  MOL      5

