@<TRIPOS>MOLECULE
3uo4_ligand_079
    46    49
SMALL
GAST_HUCK
****
This file was generated by PARSER (from files_GN.cpp)

@<TRIPOS>ATOM
      1 N01         7.4802   29.9665    1.6826 N.ar        1 MOL      -0.2685
      2 N02         5.6346   31.0242    2.6201 N.ar        1 MOL      -0.2339
      3 N03         5.4496   31.4270    4.9492 N.pl3       1 MOL      -0.2537
      4 N04         5.7607   30.7066    0.2686 N.pl3       1 MOL      -0.2427
      5 C05         8.0451   29.8260    2.9117 C.ar        1 MOL       0.0015
      6 C06         6.2667   30.5542    1.5165 C.ar        1 MOL       0.1962
      7 C07         6.1309   30.9388    3.8813 C.ar        1 MOL       0.1353
      8 C08         7.3791   30.3082    4.0544 C.ar        1 MOL      -0.0013
      9 C09         4.2239   32.0498    4.9381 C.ar        1 MOL       0.0745
     10 C10         3.9235   33.0386    3.9669 C.ar        1 MOL      -0.0363
     11 C11         2.6743   33.6785    3.9410 C.ar        1 MOL      -0.0708
     12 C12         1.7101   33.3634    4.9084 C.ar        1 MOL      -0.0722
     13 C13         2.0061   32.4245    5.9098 C.ar        1 MOL      -0.0625
     14 C14         3.2617   31.7652    5.9526 C.ar        1 MOL       0.0075
     15 C15         3.5143   30.8430    7.0146 C.ar        1 MOL      -0.0223
     16 C16         4.5736   31.2962   -0.0831 C.ar        1 MOL       0.0684
     17 C17         3.4084   31.2568    0.7161 C.ar        1 MOL      -0.0343
     18 C18         2.2293   31.9060    0.3123 C.ar        1 MOL      -0.0571
     19 C19         2.1688   32.6039   -0.9165 C.ar        1 MOL      -0.0016
     20 C20         3.3247   32.6103   -1.7344 C.ar        1 MOL      -0.0571
     21 C21         4.5042   31.9592   -1.3265 C.ar        1 MOL      -0.0343
     22 C22         0.9820   33.2703   -1.3163 C.2         1 MOL       0.0553
     23 C23         3.2192   31.1977    8.3540 C.ar        1 MOL      -0.0571
     24 C24         3.4804   30.3099    9.4139 C.ar        1 MOL      -0.0632
     25 C25         4.0526   29.0546    9.1531 C.ar        1 MOL      -0.0635
     26 C26         4.3522   28.6827    7.8315 C.ar        1 MOL      -0.0632
     27 C27         4.0713   29.5634    6.7701 C.ar        1 MOL      -0.0571
     28 O28        -0.0934   33.3541   -0.4997 O.co2       1 MOL      -0.5638
     29 O29         0.8776   33.8891   -2.5140 O.co2       1 MOL      -0.5638
     30 H1          5.8192   31.2153    5.8217 H           1 MOL       0.2176
     31 H2          6.3522   30.4545   -0.4615 H           1 MOL       0.2187
     32 H3          8.9574   29.3770    2.9982 H           1 MOL       0.0849
     33 H4          7.8029   30.2109    4.9807 H           1 MOL       0.0586
     34 H5          4.6239   33.3205    3.2791 H           1 MOL       0.0537
     35 H6          2.4707   34.3837    3.2271 H           1 MOL       0.0591
     36 H7          0.7995   33.8306    4.8941 H           1 MOL       0.0524
     37 H8          1.2858   32.2241    6.6097 H           1 MOL       0.0594
     38 H9          3.3985   30.7424    1.5970 H           1 MOL       0.0545
     39 H10         1.4139   31.8562    0.9302 H           1 MOL       0.0622
     40 H11         3.3228   33.0956   -2.6357 H           1 MOL       0.0622
     41 H12         5.3254   31.9957   -1.9376 H           1 MOL       0.0545
     42 H13         2.8189   32.1126    8.5691 H           1 MOL       0.0606
     43 H14         3.2600   30.5820   10.3736 H           1 MOL       0.0613
     44 H15         4.2469   28.4129    9.9236 H           1 MOL       0.0603
     45 H16         4.7646   27.7657    7.6421 H           1 MOL       0.0613
     46 H17         4.2704   29.2590    5.8141 H           1 MOL       0.0606
@<TRIPOS>BOND
     1     1     5  ar
     2     1     6  ar
     3     6     2  ar
     4     2     7  ar
     5     7     3   1
     6     3     9   1
     7     6     4   1
     8     4    16   1
     9     5     8  ar
    10     7     8  ar
    11     9    10  ar
    12     9    14  ar
    13    10    11  ar
    14    11    12  ar
    15    12    13  ar
    16    13    14  ar
    17    14    15   1
    18    15    23  ar
    19    15    27  ar
    20    16    17  ar
    21    16    21  ar
    22    17    18  ar
    23    18    19  ar
    24    19    20  ar
    25    19    22   1
    26    20    21  ar
    27    22    28  ar
    28    22    29  ar
    29    23    24  ar
    30    24    25  ar
    31    25    26  ar
    32    26    27  ar
    33     3    30   1
    34     4    31   1
    35     5    32   1
    36     8    33   1
    37    10    34   1
    38    11    35   1
    39    12    36   1
    40    13    37   1
    41    17    38   1
    42    18    39   1
    43    20    40   1
    44    21    41   1
    45    23    42   1
    46    24    43   1
    47    25    44   1
    48    26    45   1
    49    27    46   1
@<TRIPOS>SUBSTRUCTURE
     1  MOL      5

