@<TRIPOS>MOLECULE
3uo4_ligand_085
    46    49
SMALL
GAST_HUCK
****
This file was generated by PARSER (from files_GN.cpp)

@<TRIPOS>ATOM
      1 N01         6.9319   26.0975    4.4144 N.ar        1 MOL      -0.2685
      2 N02         5.6661   27.8740    5.2459 N.ar        1 MOL      -0.2339
      3 N03         5.1385   28.0367    7.5559 N.pl3       1 MOL      -0.2537
      4 N04         6.2536   27.7517    2.9337 N.pl3       1 MOL      -0.2427
      5 C05         7.0004   25.5351    5.6521 C.ar        1 MOL       0.0015
      6 C06         6.2529   27.2538    4.1890 C.ar        1 MOL       0.1962
      7 C07         5.7160   27.3883    6.5148 C.ar        1 MOL       0.1353
      8 C08         6.3859   26.1701    6.7452 C.ar        1 MOL      -0.0013
      9 C09         4.5629   29.2767    7.5390 C.ar        1 MOL       0.0745
     10 C10         3.3655   29.4177    8.2730 C.ar        1 MOL      -0.0363
     11 C11         2.6659   30.6367    8.2870 C.ar        1 MOL      -0.0708
     12 C12         3.1776   31.7462    7.5945 C.ar        1 MOL      -0.0722
     13 C13         4.3914   31.6319    6.9014 C.ar        1 MOL      -0.0625
     14 C14         5.1205   30.4150    6.8777 C.ar        1 MOL       0.0075
     15 C15         6.4194   30.3993    6.2790 C.ar        1 MOL      -0.0223
     16 C16         5.7235   28.9417    2.5373 C.ar        1 MOL       0.0684
     17 C17         4.4446   29.3867    2.9412 C.ar        1 MOL      -0.0343
     18 C18         3.9424   30.6193    2.4925 C.ar        1 MOL      -0.0571
     19 C19         4.7202   31.4508    1.6554 C.ar        1 MOL      -0.0016
     20 C20         5.9891   30.9949    1.2295 C.ar        1 MOL      -0.0571
     21 C21         6.4746   29.7417    1.6485 C.ar        1 MOL      -0.0343
     22 C22         4.2287   32.7218    1.2661 C.2         1 MOL       0.0553
     23 C23         7.5500   29.9912    7.0307 C.ar        1 MOL      -0.0571
     24 C24         8.8273   29.9300    6.4442 C.ar        1 MOL      -0.0632
     25 C25         8.9963   30.3022    5.0996 C.ar        1 MOL      -0.0635
     26 C26         7.8933   30.7221    4.3383 C.ar        1 MOL      -0.0632
     27 C27         6.6144   30.7701    4.9249 C.ar        1 MOL      -0.0571
     28 O28         2.9612   32.8613    0.8038 O.co2       1 MOL      -0.5638
     29 O29         4.9955   33.8371    1.3641 O.co2       1 MOL      -0.5638
     30 H1          5.1041   27.5592    8.4019 H           1 MOL       0.2176
     31 H2          6.8181   27.2922    2.2925 H           1 MOL       0.2187
     32 H3          7.5106   24.6633    5.7872 H           1 MOL       0.0849
     33 H4          6.4441   25.7676    7.6861 H           1 MOL       0.0586
     34 H5          2.9731   28.6223    8.7819 H           1 MOL       0.0537
     35 H6          1.7879   30.7232    8.8108 H           1 MOL       0.0591
     36 H7          2.6767   32.6354    7.6159 H           1 MOL       0.0524
     37 H8          4.7616   32.4695    6.4485 H           1 MOL       0.0594
     38 H9          3.8658   28.8041    3.5477 H           1 MOL       0.0545
     39 H10         3.0213   30.9213    2.8221 H           1 MOL       0.0622
     40 H11         6.5672   31.5676    0.6102 H           1 MOL       0.0622
     41 H12         7.3948   29.4273    1.3283 H           1 MOL       0.0545
     42 H13         7.4476   29.7274    8.0131 H           1 MOL       0.0606
     43 H14         9.6283   29.6244    6.9988 H           1 MOL       0.0613
     44 H15         9.9232   30.2529    4.6785 H           1 MOL       0.0603
     45 H16         8.0220   30.9847    3.3608 H           1 MOL       0.0613
     46 H17         5.8175   31.0612    4.3512 H           1 MOL       0.0606
@<TRIPOS>BOND
     1     1     5  ar
     2     1     6  ar
     3     6     2  ar
     4     2     7  ar
     5     7     3   1
     6     3     9   1
     7     6     4   1
     8     4    16   1
     9     5     8  ar
    10     7     8  ar
    11     9    10  ar
    12     9    14  ar
    13    10    11  ar
    14    11    12  ar
    15    12    13  ar
    16    13    14  ar
    17    14    15   1
    18    15    23  ar
    19    15    27  ar
    20    16    17  ar
    21    16    21  ar
    22    17    18  ar
    23    18    19  ar
    24    19    20  ar
    25    19    22   1
    26    20    21  ar
    27    22    28  ar
    28    22    29  ar
    29    23    24  ar
    30    24    25  ar
    31    25    26  ar
    32    26    27  ar
    33     3    30   1
    34     4    31   1
    35     5    32   1
    36     8    33   1
    37    10    34   1
    38    11    35   1
    39    12    36   1
    40    13    37   1
    41    17    38   1
    42    18    39   1
    43    20    40   1
    44    21    41   1
    45    23    42   1
    46    24    43   1
    47    25    44   1
    48    26    45   1
    49    27    46   1
@<TRIPOS>SUBSTRUCTURE
     1  MOL      5

