@<TRIPOS>MOLECULE
3uo4_ligand_010
    46    49
SMALL
GAST_HUCK
****
This file was generated by PARSER (from files_GN.cpp)

@<TRIPOS>ATOM
      1 N01         5.3851   30.8873    1.9273 N.ar        1 MOL      -0.2685
      2 N02         3.3879   31.4811    0.8912 N.ar        1 MOL      -0.2339
      3 N03         2.7818   30.6096   -1.2224 N.pl3       1 MOL      -0.2537
      4 N04         4.0252   32.4593    2.9855 N.pl3       1 MOL      -0.2427
      5 C05         5.6862   30.0373    0.9156 C.ar        1 MOL       0.0015
      6 C06         4.2445   31.6270    1.9369 C.ar        1 MOL       0.1962
      7 C07         3.6250   30.6639   -0.1666 C.ar        1 MOL       0.1353
      8 C08         4.8020   29.8935   -0.1708 C.ar        1 MOL      -0.0013
      9 C09         1.6371   31.3380   -1.3267 C.ar        1 MOL       0.0745
     10 C10         0.4361   30.7164   -0.9236 C.ar        1 MOL      -0.0363
     11 C11        -0.7917   31.3960   -1.0237 C.ar        1 MOL      -0.0708
     12 C12        -0.8281   32.7007   -1.5354 C.ar        1 MOL      -0.0722
     13 C13         0.3582   33.3240   -1.9544 C.ar        1 MOL      -0.0625
     14 C14         1.6074   32.6567   -1.8651 C.ar        1 MOL       0.0075
     15 C15         2.7678   33.3070   -2.3765 C.ar        1 MOL      -0.0223
     16 C16         3.0022   33.3449    3.1923 C.ar        1 MOL       0.0684
     17 C17         2.3015   34.0086    2.1547 C.ar        1 MOL      -0.0343
     18 C18         1.2859   34.9344    2.4478 C.ar        1 MOL      -0.0571
     19 C19         0.9273   35.2237    3.7837 C.ar        1 MOL      -0.0016
     20 C20         1.6325   34.5687    4.8196 C.ar        1 MOL      -0.0571
     21 C21         2.6629   33.6531    4.5240 C.ar        1 MOL      -0.0343
     22 C22        -0.1205   36.1320    4.0674 C.2         1 MOL       0.0553
     23 C23         3.9191   33.5213   -1.5825 C.ar        1 MOL      -0.0571
     24 C24         5.0630   34.1490   -2.1081 C.ar        1 MOL      -0.0632
     25 C25         5.0622   34.6073   -3.4380 C.ar        1 MOL      -0.0635
     26 C26         3.9206   34.4258   -4.2409 C.ar        1 MOL      -0.0632
     27 C27         2.7842   33.7790   -3.7115 C.ar        1 MOL      -0.0571
     28 O28        -0.9437   35.9478    5.1297 O.co2       1 MOL      -0.5638
     29 O29        -0.4025   37.1582    3.2262 O.co2       1 MOL      -0.5638
     30 H1          2.9948   29.9975   -1.9476 H           1 MOL       0.2176
     31 H2          4.6684   32.3838    3.7096 H           1 MOL       0.2187
     32 H3          6.5582   29.5034    0.9443 H           1 MOL       0.0849
     33 H4          5.0314   29.2723   -0.9477 H           1 MOL       0.0586
     34 H5          0.4429   29.7572   -0.5594 H           1 MOL       0.0537
     35 H6         -1.6544   30.9325   -0.7281 H           1 MOL       0.0591
     36 H7         -1.7192   33.1913   -1.6100 H           1 MOL       0.0524
     37 H8          0.3017   34.2746   -2.3330 H           1 MOL       0.0594
     38 H9          2.5400   33.8594    1.1770 H           1 MOL       0.0545
     39 H10         0.8070   35.3855    1.6668 H           1 MOL       0.0622
     40 H11         1.4119   34.7609    5.8012 H           1 MOL       0.0622
     41 H12         3.1622   33.2070    5.3016 H           1 MOL       0.0545
     42 H13         3.9348   33.2230   -0.5981 H           1 MOL       0.0606
     43 H14         5.8893   34.2841   -1.5284 H           1 MOL       0.0613
     44 H15         5.8850   35.0844   -3.8229 H           1 MOL       0.0603
     45 H16         3.9155   34.7601   -5.2094 H           1 MOL       0.0613
     46 H17         1.9654   33.6583   -4.3202 H           1 MOL       0.0606
@<TRIPOS>BOND
     1     1     5  ar
     2     1     6  ar
     3     6     2  ar
     4     2     7  ar
     5     7     3   1
     6     3     9   1
     7     6     4   1
     8     4    16   1
     9     5     8  ar
    10     7     8  ar
    11     9    10  ar
    12     9    14  ar
    13    10    11  ar
    14    11    12  ar
    15    12    13  ar
    16    13    14  ar
    17    14    15   1
    18    15    23  ar
    19    15    27  ar
    20    16    17  ar
    21    16    21  ar
    22    17    18  ar
    23    18    19  ar
    24    19    20  ar
    25    19    22   1
    26    20    21  ar
    27    22    28  ar
    28    22    29  ar
    29    23    24  ar
    30    24    25  ar
    31    25    26  ar
    32    26    27  ar
    33     3    30   1
    34     4    31   1
    35     5    32   1
    36     8    33   1
    37    10    34   1
    38    11    35   1
    39    12    36   1
    40    13    37   1
    41    17    38   1
    42    18    39   1
    43    20    40   1
    44    21    41   1
    45    23    42   1
    46    24    43   1
    47    25    44   1
    48    26    45   1
    49    27    46   1
@<TRIPOS>SUBSTRUCTURE
     1  MOL      5

