@<TRIPOS>MOLECULE
3uo4_ligand_003
    46    49
SMALL
GAST_HUCK
****
This file was generated by PARSER (from files_GN.cpp)

@<TRIPOS>ATOM
      1 N01         3.2882   31.2047    5.7915 N.ar        1 MOL      -0.2685
      2 N02         5.4384   30.9175    4.9241 N.ar        1 MOL      -0.2339
      3 N03         6.8153   29.1424    5.4919 N.pl3       1 MOL      -0.2537
      4 N04         4.1839   32.7653    4.2306 N.pl3       1 MOL      -0.2427
      5 C05         3.3938   30.0801    6.5365 C.ar        1 MOL       0.0015
      6 C06         4.2920   31.6458    4.9858 C.ar        1 MOL       0.1962
      7 C07         5.6292   29.7829    5.6511 C.ar        1 MOL       0.1353
      8 C08         4.5774   29.3297    6.4856 C.ar        1 MOL      -0.0013
      9 C09         7.2156   28.0180    6.1557 C.ar        1 MOL       0.0745
     10 C10         7.3488   28.0769    7.5632 C.ar        1 MOL      -0.0363
     11 C11         7.7208   26.9414    8.2993 C.ar        1 MOL      -0.0708
     12 C12         7.9871   25.7369    7.6323 C.ar        1 MOL      -0.0722
     13 C13         7.9003   25.6755    6.2301 C.ar        1 MOL      -0.0625
     14 C14         7.5314   26.8126    5.4659 C.ar        1 MOL       0.0075
     15 C15         7.4781   26.7031    4.0430 C.ar        1 MOL      -0.0223
     16 C16         3.1281   33.6342    4.2164 C.ar        1 MOL       0.0684
     17 C17         2.6951   34.1625    2.9818 C.ar        1 MOL      -0.0343
     18 C18         1.5765   35.0161    2.9185 C.ar        1 MOL      -0.0571
     19 C19         0.8696   35.3684    4.0927 C.ar        1 MOL      -0.0016
     20 C20         1.3430   34.8896    5.3343 C.ar        1 MOL      -0.0571
     21 C21         2.4659   34.0483    5.3965 C.ar        1 MOL      -0.0343
     22 C22        -0.2910   36.1711    4.0375 C.2         1 MOL       0.0553
     23 C23         8.5930   26.2061    3.3217 C.ar        1 MOL      -0.0571
     24 C24         8.5484   26.0759    1.9213 C.ar        1 MOL      -0.0632
     25 C25         7.3900   26.4467    1.2169 C.ar        1 MOL      -0.0635
     26 C26         6.2745   26.9431    1.9142 C.ar        1 MOL      -0.0632
     27 C27         6.3159   27.0632    3.3167 C.ar        1 MOL      -0.0571
     28 O28        -1.2844   35.9962    4.9421 O.co2       1 MOL      -0.5638
     29 O29        -0.4964   37.0391    3.0193 O.co2       1 MOL      -0.5638
     30 H1          7.3903   29.4637    4.7804 H           1 MOL       0.2176
     31 H2          4.8876   32.9168    3.5780 H           1 MOL       0.2187
     32 H3          2.6150   29.7886    7.1289 H           1 MOL       0.0849
     33 H4          4.6495   28.4678    7.0310 H           1 MOL       0.0586
     34 H5          7.1633   28.9510    8.0647 H           1 MOL       0.0537
     35 H6          7.7993   26.9951    9.3173 H           1 MOL       0.0591
     36 H7          8.2555   24.9099    8.1665 H           1 MOL       0.0524
     37 H8          8.0997   24.7818    5.7703 H           1 MOL       0.0594
     38 H9          3.1714   33.9028    2.1152 H           1 MOL       0.0545
     39 H10         1.2677   35.3535    2.0013 H           1 MOL       0.0622
     40 H11         0.8713   35.1513    6.2057 H           1 MOL       0.0622
     41 H12         2.7981   33.7497    6.3162 H           1 MOL       0.0545
     42 H13         9.4500   25.9356    3.8110 H           1 MOL       0.0606
     43 H14         9.3555   25.7033    1.4159 H           1 MOL       0.0613
     44 H15         7.3558   26.3478    0.2001 H           1 MOL       0.0603
     45 H16         5.4285   27.2046    1.4027 H           1 MOL       0.0613
     46 H17         5.4826   27.4003    3.8049 H           1 MOL       0.0606
@<TRIPOS>BOND
     1     1     5  ar
     2     1     6  ar
     3     6     2  ar
     4     2     7  ar
     5     7     3   1
     6     3     9   1
     7     6     4   1
     8     4    16   1
     9     5     8  ar
    10     7     8  ar
    11     9    10  ar
    12     9    14  ar
    13    10    11  ar
    14    11    12  ar
    15    12    13  ar
    16    13    14  ar
    17    14    15   1
    18    15    23  ar
    19    15    27  ar
    20    16    17  ar
    21    16    21  ar
    22    17    18  ar
    23    18    19  ar
    24    19    20  ar
    25    19    22   1
    26    20    21  ar
    27    22    28  ar
    28    22    29  ar
    29    23    24  ar
    30    24    25  ar
    31    25    26  ar
    32    26    27  ar
    33     3    30   1
    34     4    31   1
    35     5    32   1
    36     8    33   1
    37    10    34   1
    38    11    35   1
    39    12    36   1
    40    13    37   1
    41    17    38   1
    42    18    39   1
    43    20    40   1
    44    21    41   1
    45    23    42   1
    46    24    43   1
    47    25    44   1
    48    26    45   1
    49    27    46   1
@<TRIPOS>SUBSTRUCTURE
     1  MOL      5

