@<TRIPOS>MOLECULE
3uo4_ligand_064
    46    49
SMALL
GAST_HUCK
****
This file was generated by PARSER (from files_GN.cpp)

@<TRIPOS>ATOM
      1 N01         3.7112   31.5952    0.3684 N.ar        1 MOL      -0.2685
      2 N02         4.5352   32.9375   -1.3535 N.ar        1 MOL      -0.2339
      3 N03         5.9531   31.9914   -3.0257 N.pl3       1 MOL      -0.2537
      4 N04         3.1315   33.8994    0.2518 N.pl3       1 MOL      -0.2427
      5 C05         4.3489   30.5055   -0.1229 C.ar        1 MOL       0.0015
      6 C06         3.7729   32.8100   -0.2356 C.ar        1 MOL       0.1962
      7 C07         5.2079   31.8883   -1.9069 C.ar        1 MOL       0.1353
      8 C08         5.1183   30.6257   -1.2924 C.ar        1 MOL      -0.0013
      9 C09         6.1241   33.1211   -3.7464 C.ar        1 MOL       0.0745
     10 C10         7.1979   33.9706   -3.3980 C.ar        1 MOL      -0.0363
     11 C11         7.4702   35.1311   -4.1409 C.ar        1 MOL      -0.0708
     12 C12         6.6385   35.4728   -5.2140 C.ar        1 MOL      -0.0722
     13 C13         5.5549   34.6416   -5.5584 C.ar        1 MOL      -0.0625
     14 C14         5.2833   33.4375   -4.8505 C.ar        1 MOL       0.0075
     15 C15         4.1924   32.6047   -5.2790 C.ar        1 MOL      -0.0223
     16 C16         2.3376   33.9655    1.3658 C.ar        1 MOL       0.0684
     17 C17         1.4624   32.9240    1.7521 C.ar        1 MOL      -0.0343
     18 C18         0.7269   33.0105    2.9453 C.ar        1 MOL      -0.0571
     19 C19         0.7979   34.1739    3.7449 C.ar        1 MOL      -0.0016
     20 C20         1.6002   35.2478    3.3243 C.ar        1 MOL      -0.0571
     21 C21         2.3732   35.1319    2.1598 C.ar        1 MOL      -0.0343
     22 C22         0.0864   34.2428    4.9675 C.2         1 MOL       0.0553
     23 C23         4.3687   31.2143   -5.4926 C.ar        1 MOL      -0.0571
     24 C24         3.2913   30.4032   -5.9001 C.ar        1 MOL      -0.0632
     25 C25         2.0279   30.9696   -6.1381 C.ar        1 MOL      -0.0635
     26 C26         1.8432   32.3513   -5.9625 C.ar        1 MOL      -0.0632
     27 C27         2.9094   33.1579   -5.5223 C.ar        1 MOL      -0.0571
     28 O28         0.2865   33.3036    5.9329 O.co2       1 MOL      -0.5638
     29 O29        -0.9182   35.1437    5.1578 O.co2       1 MOL      -0.5638
     30 H1          6.4052   31.1910   -3.3399 H           1 MOL       0.2176
     31 H2          3.3241   34.7454   -0.1853 H           1 MOL       0.2187
     32 H3          4.2757   29.6040    0.3675 H           1 MOL       0.0849
     33 H4          5.5866   29.8032   -1.6851 H           1 MOL       0.0586
     34 H5          7.7982   33.7418   -2.6002 H           1 MOL       0.0537
     35 H6          8.2746   35.7171   -3.9045 H           1 MOL       0.0591
     36 H7          6.8265   36.3133   -5.7523 H           1 MOL       0.0524
     37 H8          4.9756   34.9088   -6.3676 H           1 MOL       0.0594
     38 H9          1.3439   32.0892    1.1689 H           1 MOL       0.0545
     39 H10         0.1237   32.2251    3.2085 H           1 MOL       0.0622
     40 H11         1.6671   36.0910    3.8832 H           1 MOL       0.0622
     41 H12         3.0065   35.8977    1.9084 H           1 MOL       0.0545
     42 H13         5.2894   30.7842   -5.3781 H           1 MOL       0.0606
     43 H14         3.4259   29.4000   -6.0418 H           1 MOL       0.0613
     44 H15         1.2458   30.3817   -6.4459 H           1 MOL       0.0603
     45 H16         0.9320   32.7708   -6.1578 H           1 MOL       0.0613
     46 H17         2.7428   34.1548   -5.3834 H           1 MOL       0.0606
@<TRIPOS>BOND
     1     1     5  ar
     2     1     6  ar
     3     6     2  ar
     4     2     7  ar
     5     7     3   1
     6     3     9   1
     7     6     4   1
     8     4    16   1
     9     5     8  ar
    10     7     8  ar
    11     9    10  ar
    12     9    14  ar
    13    10    11  ar
    14    11    12  ar
    15    12    13  ar
    16    13    14  ar
    17    14    15   1
    18    15    23  ar
    19    15    27  ar
    20    16    17  ar
    21    16    21  ar
    22    17    18  ar
    23    18    19  ar
    24    19    20  ar
    25    19    22   1
    26    20    21  ar
    27    22    28  ar
    28    22    29  ar
    29    23    24  ar
    30    24    25  ar
    31    25    26  ar
    32    26    27  ar
    33     3    30   1
    34     4    31   1
    35     5    32   1
    36     8    33   1
    37    10    34   1
    38    11    35   1
    39    12    36   1
    40    13    37   1
    41    17    38   1
    42    18    39   1
    43    20    40   1
    44    21    41   1
    45    23    42   1
    46    24    43   1
    47    25    44   1
    48    26    45   1
    49    27    46   1
@<TRIPOS>SUBSTRUCTURE
     1  MOL      5

