@<TRIPOS>MOLECULE
3uo4_ligand_048
    46    49
SMALL
GAST_HUCK
****
This file was generated by PARSER (from files_GN.cpp)

@<TRIPOS>ATOM
      1 N01         6.8187   29.1242    6.4248 N.ar        1 MOL      -0.2685
      2 N02         6.8315   30.1826    4.3404 N.ar        1 MOL      -0.2339
      3 N03         8.5306   29.6561    2.7333 N.pl3       1 MOL      -0.2537
      4 N04         5.1198   30.6201    5.9786 N.pl3       1 MOL      -0.2427
      5 C05         7.9414   28.4301    6.1143 C.ar        1 MOL       0.0015
      6 C06         6.2564   30.0108    5.5673 C.ar        1 MOL       0.1962
      7 C07         7.9547   29.5101    3.9514 C.ar        1 MOL       0.1353
      8 C08         8.5499   28.6130    4.8611 C.ar        1 MOL      -0.0013
      9 C09         8.1001   30.4169    1.6832 C.ar        1 MOL       0.0745
     10 C10         9.0560   31.2703    1.0932 C.ar        1 MOL      -0.0363
     11 C11         8.7142   32.0952    0.0091 C.ar        1 MOL      -0.0708
     12 C12         7.4167   32.0582   -0.5208 C.ar        1 MOL      -0.0722
     13 C13         6.4614   31.1789    0.0241 C.ar        1 MOL      -0.0625
     14 C14         6.7944   30.3430    1.1150 C.ar        1 MOL       0.0075
     15 C15         5.8308   29.4159    1.5747 C.ar        1 MOL      -0.0223
     16 C16         4.3437   31.4931    5.2763 C.ar        1 MOL       0.0684
     17 C17         2.9479   31.4417    5.4722 C.ar        1 MOL      -0.0343
     18 C18         2.0878   32.2871    4.7457 C.ar        1 MOL      -0.0571
     19 C19         2.6063   33.2327    3.8290 C.ar        1 MOL      -0.0016
     20 C20         4.0116   33.3173    3.6825 C.ar        1 MOL      -0.0571
     21 C21         4.8653   32.4468    4.3787 C.ar        1 MOL      -0.0343
     22 C22         1.7512   34.0666    3.0689 C.2         1 MOL       0.0553
     23 C23         5.9179   28.0479    1.2118 C.ar        1 MOL      -0.0571
     24 C24         5.0061   27.1152    1.7363 C.ar        1 MOL      -0.0632
     25 C25         4.0180   27.5320    2.6494 C.ar        1 MOL      -0.0635
     26 C26         3.9140   28.8906    2.9945 C.ar        1 MOL      -0.0632
     27 C27         4.7983   29.8384    2.4445 C.ar        1 MOL      -0.0571
     28 O28         2.2305   35.0813    2.3110 O.co2       1 MOL      -0.5638
     29 O29         0.4132   33.8756    3.0416 O.co2       1 MOL      -0.5638
     30 H1          9.4011   29.2358    2.6201 H           1 MOL       0.2176
     31 H2          4.7541   30.3055    6.8207 H           1 MOL       0.2187
     32 H3          8.3390   27.7797    6.7951 H           1 MOL       0.0849
     33 H4          9.3960   28.0858    4.6187 H           1 MOL       0.0586
     34 H5         10.0089   31.3128    1.4632 H           1 MOL       0.0537
     35 H6          9.4158   32.7218   -0.3970 H           1 MOL       0.0591
     36 H7          7.1702   32.6531   -1.3146 H           1 MOL       0.0524
     37 H8          5.5311   31.1385   -0.4037 H           1 MOL       0.0594
     38 H9          2.5420   30.7602    6.1179 H           1 MOL       0.0545
     39 H10         1.0791   32.2039    4.8960 H           1 MOL       0.0622
     40 H11         4.4264   33.9938    3.0436 H           1 MOL       0.0622
     41 H12         5.8743   32.5547    4.2633 H           1 MOL       0.0545
     42 H13         6.6435   27.7272    0.5634 H           1 MOL       0.0606
     43 H14         5.0656   26.1320    1.4631 H           1 MOL       0.0613
     44 H15         3.3703   26.8493    3.0501 H           1 MOL       0.0603
     45 H16         3.1938   29.1930    3.6531 H           1 MOL       0.0613
     46 H17         4.7079   30.8255    2.7209 H           1 MOL       0.0606
@<TRIPOS>BOND
     1     1     5  ar
     2     1     6  ar
     3     6     2  ar
     4     2     7  ar
     5     7     3   1
     6     3     9   1
     7     6     4   1
     8     4    16   1
     9     5     8  ar
    10     7     8  ar
    11     9    10  ar
    12     9    14  ar
    13    10    11  ar
    14    11    12  ar
    15    12    13  ar
    16    13    14  ar
    17    14    15   1
    18    15    23  ar
    19    15    27  ar
    20    16    17  ar
    21    16    21  ar
    22    17    18  ar
    23    18    19  ar
    24    19    20  ar
    25    19    22   1
    26    20    21  ar
    27    22    28  ar
    28    22    29  ar
    29    23    24  ar
    30    24    25  ar
    31    25    26  ar
    32    26    27  ar
    33     3    30   1
    34     4    31   1
    35     5    32   1
    36     8    33   1
    37    10    34   1
    38    11    35   1
    39    12    36   1
    40    13    37   1
    41    17    38   1
    42    18    39   1
    43    20    40   1
    44    21    41   1
    45    23    42   1
    46    24    43   1
    47    25    44   1
    48    26    45   1
    49    27    46   1
@<TRIPOS>SUBSTRUCTURE
     1  MOL      5

