@<TRIPOS>MOLECULE
3uo4_ligand_072
    46    49
SMALL
GAST_HUCK
****
This file was generated by PARSER (from files_GN.cpp)

@<TRIPOS>ATOM
      1 N01         9.0031   33.0456   -0.2659 N.ar        1 MOL      -0.2685
      2 N02         7.5076   31.3545   -0.8780 N.ar        1 MOL      -0.2339
      3 N03         7.5973   29.2032   -0.0704 N.pl3       1 MOL      -0.2537
      4 N04         7.2474   33.5893   -1.6715 N.pl3       1 MOL      -0.2427
      5 C05         9.7144   32.1825    0.4988 C.ar        1 MOL       0.0015
      6 C06         7.9091   32.6523   -0.9681 C.ar        1 MOL       0.1962
      7 C07         8.1574   30.4340   -0.1203 C.ar        1 MOL       0.1353
      8 C08         9.3150   30.8357    0.5927 C.ar        1 MOL      -0.0013
      9 C09         8.0603   28.1356    0.6374 C.ar        1 MOL       0.0745
     10 C10         9.2291   27.4786    0.1886 C.ar        1 MOL      -0.0363
     11 C11         9.7282   26.3636    0.8786 C.ar        1 MOL      -0.0708
     12 C12         9.0716   25.8952    2.0238 C.ar        1 MOL      -0.0722
     13 C13         7.9018   26.5314    2.4706 C.ar        1 MOL      -0.0625
     14 C14         7.3694   27.6494    1.7818 C.ar        1 MOL       0.0075
     15 C15         6.1992   28.2672    2.3029 C.ar        1 MOL      -0.0223
     16 C16         6.1612   33.3717   -2.4714 C.ar        1 MOL       0.0684
     17 C17         6.2673   32.6021   -3.6421 C.ar        1 MOL      -0.0343
     18 C18         5.1610   32.4753   -4.5083 C.ar        1 MOL      -0.0571
     19 C19         3.9355   33.1086   -4.2146 C.ar        1 MOL      -0.0016
     20 C20         3.8332   33.8613   -3.0209 C.ar        1 MOL      -0.0571
     21 C21         4.9489   34.0110   -2.1659 C.ar        1 MOL      -0.0343
     22 C22         2.8332   33.0270   -5.1088 C.2         1 MOL       0.0553
     23 C23         5.0171   27.5066    2.4754 C.ar        1 MOL      -0.0571
     24 C24         3.8703   28.0811    3.0535 C.ar        1 MOL      -0.0632
     25 C25         3.8946   29.4186    3.4818 C.ar        1 MOL      -0.0635
     26 C26         5.0587   30.1913    3.3110 C.ar        1 MOL      -0.0632
     27 C27         6.2048   29.6182    2.7260 C.ar        1 MOL      -0.0571
     28 O28         2.8434   32.2047   -6.1780 O.co2       1 MOL      -0.5638
     29 O29         1.7729   33.8565   -4.9935 O.co2       1 MOL      -0.5638
     30 H1          6.7195   29.1127   -0.4963 H           1 MOL       0.2176
     31 H2          7.5345   34.5099   -1.5621 H           1 MOL       0.2187
     32 H3         10.5362   32.5233    0.9997 H           1 MOL       0.0849
     33 H4          9.8345   30.1961    1.1896 H           1 MOL       0.0586
     34 H5          9.7240   27.8188   -0.6389 H           1 MOL       0.0537
     35 H6         10.5772   25.8945    0.5480 H           1 MOL       0.0591
     36 H7          9.4468   25.0974    2.5403 H           1 MOL       0.0524
     37 H8          7.4501   26.1751    3.3192 H           1 MOL       0.0594
     38 H9          7.1612   32.1770   -3.9027 H           1 MOL       0.0545
     39 H10         5.2888   31.9521   -5.3807 H           1 MOL       0.0622
     40 H11         2.9633   34.3301   -2.7691 H           1 MOL       0.0622
     41 H12         4.8542   34.5879   -1.3283 H           1 MOL       0.0545
     42 H13         4.9826   26.5274    2.1821 H           1 MOL       0.0606
     43 H14         3.0231   27.5201    3.1686 H           1 MOL       0.0613
     44 H15         3.0673   29.8317    3.9166 H           1 MOL       0.0603
     45 H16         5.0768   31.1632    3.6289 H           1 MOL       0.0613
     46 H17         7.0486   30.1904    2.6377 H           1 MOL       0.0606
@<TRIPOS>BOND
     1     1     5  ar
     2     1     6  ar
     3     6     2  ar
     4     2     7  ar
     5     7     3   1
     6     3     9   1
     7     6     4   1
     8     4    16   1
     9     5     8  ar
    10     7     8  ar
    11     9    10  ar
    12     9    14  ar
    13    10    11  ar
    14    11    12  ar
    15    12    13  ar
    16    13    14  ar
    17    14    15   1
    18    15    23  ar
    19    15    27  ar
    20    16    17  ar
    21    16    21  ar
    22    17    18  ar
    23    18    19  ar
    24    19    20  ar
    25    19    22   1
    26    20    21  ar
    27    22    28  ar
    28    22    29  ar
    29    23    24  ar
    30    24    25  ar
    31    25    26  ar
    32    26    27  ar
    33     3    30   1
    34     4    31   1
    35     5    32   1
    36     8    33   1
    37    10    34   1
    38    11    35   1
    39    12    36   1
    40    13    37   1
    41    17    38   1
    42    18    39   1
    43    20    40   1
    44    21    41   1
    45    23    42   1
    46    24    43   1
    47    25    44   1
    48    26    45   1
    49    27    46   1
@<TRIPOS>SUBSTRUCTURE
     1  MOL      5

