@<TRIPOS>MOLECULE
3uo4_ligand_066
    46    49
SMALL
GAST_HUCK
****
This file was generated by PARSER (from files_GN.cpp)

@<TRIPOS>ATOM
      1 N01         5.3655   29.5435    9.6556 N.ar        1 MOL      -0.2685
      2 N02         4.9879   29.8715    7.3769 N.ar        1 MOL      -0.2339
      3 N03         6.1928   28.6222    5.7256 N.pl3       1 MOL      -0.2537
      4 N04         3.7355   31.0973    8.9821 N.pl3       1 MOL      -0.2427
      5 C05         6.3144   28.6163    9.3773 C.ar        1 MOL       0.0015
      6 C06         4.6956   30.1913    8.6641 C.ar        1 MOL       0.1962
      7 C07         5.9018   28.9369    7.0154 C.ar        1 MOL       0.1353
      8 C08         6.6079   28.2775    8.0432 C.ar        1 MOL      -0.0013
      9 C09         5.6745   29.0762    4.5306 C.ar        1 MOL       0.0745
     10 C10         4.3780   29.6340    4.4096 C.ar        1 MOL      -0.0363
     11 C11         3.8839   30.0828    3.1716 C.ar        1 MOL      -0.0708
     12 C12         4.6615   29.9356    2.0157 C.ar        1 MOL      -0.0722
     13 C13         5.9318   29.3434    2.0996 C.ar        1 MOL      -0.0625
     14 C14         6.4484   28.9038    3.3450 C.ar        1 MOL       0.0075
     15 C15         7.7227   28.2674    3.3440 C.ar        1 MOL      -0.0223
     16 C16         3.0358   31.8399    8.0788 C.ar        1 MOL       0.0684
     17 C17         1.6507   31.6388    7.9295 C.ar        1 MOL      -0.0343
     18 C18         0.9171   32.4081    7.0080 C.ar        1 MOL      -0.0571
     19 C19         1.5319   33.4385    6.2562 C.ar        1 MOL      -0.0016
     20 C20         2.9263   33.6249    6.4078 C.ar        1 MOL      -0.0571
     21 C21         3.6645   32.8445    7.3089 C.ar        1 MOL      -0.0343
     22 C22         0.7583   34.2747    5.4120 C.2         1 MOL       0.0553
     23 C23         7.8640   26.9482    2.8512 C.ar        1 MOL      -0.0571
     24 C24         9.1223   26.3139    2.8428 C.ar        1 MOL      -0.0632
     25 C25        10.2562   26.9941    3.3226 C.ar        1 MOL      -0.0635
     26 C26        10.1274   28.2999    3.8278 C.ar        1 MOL      -0.0632
     27 C27         8.8692   28.9327    3.8418 C.ar        1 MOL      -0.0571
     28 O28         1.2417   34.7325    4.2295 O.co2       1 MOL      -0.5638
     29 O29        -0.4648   34.7288    5.7803 O.co2       1 MOL      -0.5638
     30 H1          6.9287   27.9944    5.6335 H           1 MOL       0.2176
     31 H2          3.4828   31.1667    9.9224 H           1 MOL       0.2187
     32 H3          6.8081   28.1565   10.1448 H           1 MOL       0.0849
     33 H4          7.3138   27.5728    7.8343 H           1 MOL       0.0586
     34 H5          3.7433   29.6901    5.2045 H           1 MOL       0.0537
     35 H6          2.9467   30.4957    3.1111 H           1 MOL       0.0591
     36 H7          4.2866   30.2328    1.1097 H           1 MOL       0.0524
     37 H8          6.4745   29.2299    1.2372 H           1 MOL       0.0594
     38 H9          1.1720   30.9212    8.4832 H           1 MOL       0.0545
     39 H10        -0.0800   32.2082    6.8955 H           1 MOL       0.0622
     40 H11         3.4136   34.3567    5.8881 H           1 MOL       0.0622
     41 H12         4.6664   33.0293    7.4408 H           1 MOL       0.0545
     42 H13         7.0505   26.4336    2.5052 H           1 MOL       0.0606
     43 H14         9.2138   25.3582    2.4894 H           1 MOL       0.0613
     44 H15        11.1709   26.5357    3.3116 H           1 MOL       0.0603
     45 H16        10.9513   28.7870    4.1879 H           1 MOL       0.0613
     46 H17         8.7946   29.8825    4.2136 H           1 MOL       0.0606
@<TRIPOS>BOND
     1     1     5  ar
     2     1     6  ar
     3     6     2  ar
     4     2     7  ar
     5     7     3   1
     6     3     9   1
     7     6     4   1
     8     4    16   1
     9     5     8  ar
    10     7     8  ar
    11     9    10  ar
    12     9    14  ar
    13    10    11  ar
    14    11    12  ar
    15    12    13  ar
    16    13    14  ar
    17    14    15   1
    18    15    23  ar
    19    15    27  ar
    20    16    17  ar
    21    16    21  ar
    22    17    18  ar
    23    18    19  ar
    24    19    20  ar
    25    19    22   1
    26    20    21  ar
    27    22    28  ar
    28    22    29  ar
    29    23    24  ar
    30    24    25  ar
    31    25    26  ar
    32    26    27  ar
    33     3    30   1
    34     4    31   1
    35     5    32   1
    36     8    33   1
    37    10    34   1
    38    11    35   1
    39    12    36   1
    40    13    37   1
    41    17    38   1
    42    18    39   1
    43    20    40   1
    44    21    41   1
    45    23    42   1
    46    24    43   1
    47    25    44   1
    48    26    45   1
    49    27    46   1
@<TRIPOS>SUBSTRUCTURE
     1  MOL      5

