@<TRIPOS>MOLECULE
3uo4_ligand_023
    46    49
SMALL
GAST_HUCK
****
This file was generated by PARSER (from files_GN.cpp)

@<TRIPOS>ATOM
      1 N01         4.3099   28.7011    3.9908 N.ar        1 MOL      -0.2685
      2 N02         4.1281   30.2490    2.2759 N.ar        1 MOL      -0.2339
      3 N03         5.0012   29.8267    0.1147 N.pl3       1 MOL      -0.2537
      4 N04         3.3046   30.7541    4.4502 N.pl3       1 MOL      -0.2427
      5 C05         4.9263   27.8180    3.1655 C.ar        1 MOL       0.0015
      6 C06         3.9139   29.9283    3.5752 C.ar        1 MOL       0.1962
      7 C07         4.7474   29.4365    1.3833 C.ar        1 MOL       0.1353
      8 C08         5.1846   28.1801    1.8366 C.ar        1 MOL      -0.0013
      9 C09         4.7765   31.0743   -0.4175 C.ar        1 MOL       0.0745
     10 C10         5.9170   31.9082   -0.4977 C.ar        1 MOL      -0.0363
     11 C11         5.8329   33.2074   -1.0296 C.ar        1 MOL      -0.0708
     12 C12         4.6081   33.6792   -1.5117 C.ar        1 MOL      -0.0722
     13 C13         3.4722   32.8605   -1.4639 C.ar        1 MOL      -0.0625
     14 C14         3.5172   31.5472   -0.9100 C.ar        1 MOL       0.0075
     15 C15         2.3163   30.7538   -0.9340 C.ar        1 MOL      -0.0223
     16 C16         2.8107   32.0094    4.1828 C.ar        1 MOL       0.0684
     17 C17         3.4147   32.9287    3.2892 C.ar        1 MOL      -0.0343
     18 C18         2.7772   34.1297    2.9449 C.ar        1 MOL      -0.0571
     19 C19         1.5487   34.4967    3.5352 C.ar        1 MOL      -0.0016
     20 C20         0.9854   33.6199    4.4925 C.ar        1 MOL      -0.0571
     21 C21         1.6112   32.3984    4.8186 C.ar        1 MOL      -0.0343
     22 C22         0.9339   35.7211    3.1875 C.2         1 MOL       0.0553
     23 C23         1.0690   31.2996   -0.5392 C.ar        1 MOL      -0.0571
     24 C24        -0.1184   30.5553   -0.6321 C.ar        1 MOL      -0.0632
     25 C25        -0.0827   29.2339   -1.1119 C.ar        1 MOL      -0.0635
     26 C26         1.1407   28.6665   -1.5005 C.ar        1 MOL      -0.0632
     27 C27         2.3239   29.4211   -1.4201 C.ar        1 MOL      -0.0571
     28 O28        -0.3005   35.7840    2.6532 O.co2       1 MOL      -0.5638
     29 O29         1.5325   36.8966    3.4848 O.co2       1 MOL      -0.5638
     30 H1          5.5674   29.2388   -0.4078 H           1 MOL       0.2176
     31 H2          3.0896   30.3745    5.3186 H           1 MOL       0.2187
     32 H3          5.1988   26.9019    3.5193 H           1 MOL       0.0849
     33 H4          5.6837   27.5434    1.2138 H           1 MOL       0.0586
     34 H5          6.8242   31.5727   -0.1569 H           1 MOL       0.0537
     35 H6          6.6639   33.7893   -1.0836 H           1 MOL       0.0591
     36 H7          4.5468   34.6093   -1.9247 H           1 MOL       0.0524
     37 H8          2.6093   33.2207   -1.8742 H           1 MOL       0.0594
     38 H9          4.3281   32.7322    2.8708 H           1 MOL       0.0545
     39 H10         3.2268   34.7272    2.2480 H           1 MOL       0.0622
     40 H11         0.1091   33.8573    4.9673 H           1 MOL       0.0622
     41 H12         1.1689   31.7760    5.5003 H           1 MOL       0.0545
     42 H13         1.0116   32.2609   -0.1897 H           1 MOL       0.0606
     43 H14        -1.0065   30.9829   -0.3721 H           1 MOL       0.0613
     44 H15        -0.9446   28.6958   -1.1924 H           1 MOL       0.0603
     45 H16         1.1684   27.7076   -1.8557 H           1 MOL       0.0613
     46 H17         3.1863   28.9865   -1.7421 H           1 MOL       0.0606
@<TRIPOS>BOND
     1     1     5  ar
     2     1     6  ar
     3     6     2  ar
     4     2     7  ar
     5     7     3   1
     6     3     9   1
     7     6     4   1
     8     4    16   1
     9     5     8  ar
    10     7     8  ar
    11     9    10  ar
    12     9    14  ar
    13    10    11  ar
    14    11    12  ar
    15    12    13  ar
    16    13    14  ar
    17    14    15   1
    18    15    23  ar
    19    15    27  ar
    20    16    17  ar
    21    16    21  ar
    22    17    18  ar
    23    18    19  ar
    24    19    20  ar
    25    19    22   1
    26    20    21  ar
    27    22    28  ar
    28    22    29  ar
    29    23    24  ar
    30    24    25  ar
    31    25    26  ar
    32    26    27  ar
    33     3    30   1
    34     4    31   1
    35     5    32   1
    36     8    33   1
    37    10    34   1
    38    11    35   1
    39    12    36   1
    40    13    37   1
    41    17    38   1
    42    18    39   1
    43    20    40   1
    44    21    41   1
    45    23    42   1
    46    24    43   1
    47    25    44   1
    48    26    45   1
    49    27    46   1
@<TRIPOS>SUBSTRUCTURE
     1  MOL      5

