@<TRIPOS>MOLECULE
3uo4_ligand_087
    46    49
SMALL
GAST_HUCK
****
This file was generated by PARSER (from files_GN.cpp)

@<TRIPOS>ATOM
      1 N01         8.7904   32.6017   -0.2115 N.ar        1 MOL      -0.2685
      2 N02         8.6395   30.4623   -1.1258 N.ar        1 MOL      -0.2339
      3 N03         7.4053   30.0328   -3.0993 N.pl3       1 MOL      -0.2537
      4 N04         9.8282   30.8248    0.8997 N.pl3       1 MOL      -0.2427
      5 C05         8.0461   33.1082   -1.2322 C.ar        1 MOL       0.0015
      6 C06         9.1048   31.2832   -0.1494 C.ar        1 MOL       0.1962
      7 C07         7.8837   30.8907   -2.1687 C.ar        1 MOL       0.1353
      8 C08         7.5787   32.2633   -2.2524 C.ar        1 MOL      -0.0013
      9 C09         7.5322   28.6701   -3.0993 C.ar        1 MOL       0.0745
     10 C10         7.9904   28.1119   -4.3110 C.ar        1 MOL      -0.0363
     11 C11         8.2135   26.7300   -4.4309 C.ar        1 MOL      -0.0708
     12 C12         7.9708   25.8887   -3.3365 C.ar        1 MOL      -0.0722
     13 C13         7.4787   26.4253   -2.1341 C.ar        1 MOL      -0.0625
     14 C14         7.2272   27.8158   -1.9898 C.ar        1 MOL       0.0075
     15 C15         6.6475   28.2902   -0.7686 C.ar        1 MOL      -0.0223
     16 C16        10.1814   29.5284    1.1251 C.ar        1 MOL       0.0684
     17 C17        10.0427   29.0260    2.4331 C.ar        1 MOL      -0.0343
     18 C18        10.3590   27.6896    2.7256 C.ar        1 MOL      -0.0571
     19 C19        10.8203   26.8155    1.7122 C.ar        1 MOL      -0.0016
     20 C20        10.9928   27.3337    0.4058 C.ar        1 MOL      -0.0571
     21 C21        10.6927   28.6765    0.1192 C.ar        1 MOL      -0.0343
     22 C22        11.0924   25.4575    2.0055 C.2         1 MOL       0.0553
     23 C23         5.5867   29.2309   -0.7806 C.ar        1 MOL      -0.0571
     24 C24         5.0816   29.7760    0.4126 C.ar        1 MOL      -0.0632
     25 C25         5.6182   29.3812    1.6496 C.ar        1 MOL      -0.0635
     26 C26         6.6314   28.4069    1.6903 C.ar        1 MOL      -0.0632
     27 C27         7.1311   27.8567    0.4950 C.ar        1 MOL      -0.0571
     28 O28        11.4872   24.5862    1.0486 O.co2       1 MOL      -0.5638
     29 O29        10.9796   24.9665    3.2609 O.co2       1 MOL      -0.5638
     30 H1          6.9937   30.4334   -3.8823 H           1 MOL       0.2176
     31 H2         10.0236   31.4469    1.6198 H           1 MOL       0.2187
     32 H3          7.8360   34.1083   -1.2592 H           1 MOL       0.0849
     33 H4          7.0135   32.6334   -3.0177 H           1 MOL       0.0586
     34 H5          8.1968   28.7128   -5.1141 H           1 MOL       0.0537
     35 H6          8.5689   26.3442   -5.3059 H           1 MOL       0.0591
     36 H7          8.1405   24.8825   -3.4202 H           1 MOL       0.0524
     37 H8          7.2881   25.7791   -1.3652 H           1 MOL       0.0594
     38 H9          9.6821   29.6289    3.1790 H           1 MOL       0.0545
     39 H10        10.2200   27.3614    3.6827 H           1 MOL       0.0622
     40 H11        11.3419   26.7385   -0.3517 H           1 MOL       0.0622
     41 H12        10.8406   29.0217   -0.8319 H           1 MOL       0.0545
     42 H13         5.1817   29.5455   -1.6659 H           1 MOL       0.0606
     43 H14         4.3410   30.4817    0.3803 H           1 MOL       0.0613
     44 H15         5.2708   29.7987    2.5170 H           1 MOL       0.0603
     45 H16         7.0181   28.1129    2.5916 H           1 MOL       0.0613
     46 H17         7.8861   27.1694    0.5548 H           1 MOL       0.0606
@<TRIPOS>BOND
     1     1     5  ar
     2     1     6  ar
     3     6     2  ar
     4     2     7  ar
     5     7     3   1
     6     3     9   1
     7     6     4   1
     8     4    16   1
     9     5     8  ar
    10     7     8  ar
    11     9    10  ar
    12     9    14  ar
    13    10    11  ar
    14    11    12  ar
    15    12    13  ar
    16    13    14  ar
    17    14    15   1
    18    15    23  ar
    19    15    27  ar
    20    16    17  ar
    21    16    21  ar
    22    17    18  ar
    23    18    19  ar
    24    19    20  ar
    25    19    22   1
    26    20    21  ar
    27    22    28  ar
    28    22    29  ar
    29    23    24  ar
    30    24    25  ar
    31    25    26  ar
    32    26    27  ar
    33     3    30   1
    34     4    31   1
    35     5    32   1
    36     8    33   1
    37    10    34   1
    38    11    35   1
    39    12    36   1
    40    13    37   1
    41    17    38   1
    42    18    39   1
    43    20    40   1
    44    21    41   1
    45    23    42   1
    46    24    43   1
    47    25    44   1
    48    26    45   1
    49    27    46   1
@<TRIPOS>SUBSTRUCTURE
     1  MOL      5

