@<TRIPOS>MOLECULE
3uo4_ligand_031
    46    49
SMALL
GAST_HUCK
****
This file was generated by PARSER (from files_GN.cpp)

@<TRIPOS>ATOM
      1 N01         4.2533   32.2561    6.1525 N.ar        1 MOL      -0.2685
      2 N02         3.4465   32.2951    3.9692 N.ar        1 MOL      -0.2339
      3 N03         4.2217   30.7616    2.3078 N.pl3       1 MOL      -0.2537
      4 N04         2.6366   33.8580    5.5867 N.pl3       1 MOL      -0.2427
      5 C05         5.0725   31.2151    5.8419 C.ar        1 MOL       0.0015
      6 C06         3.4352   32.8222    5.2212 C.ar        1 MOL       0.1962
      7 C07         4.2260   31.2532    3.5741 C.ar        1 MOL       0.1353
      8 C08         5.0851   30.6905    4.5381 C.ar        1 MOL      -0.0013
      9 C09         3.4832   31.0921    1.1853 C.ar        1 MOL       0.0745
     10 C10         2.3205   31.9066    1.2359 C.ar        1 MOL      -0.0363
     11 C11         1.6484   32.3208    0.0717 C.ar        1 MOL      -0.0708
     12 C12         2.0786   31.8689   -1.1794 C.ar        1 MOL      -0.0722
     13 C13         3.1648   30.9805   -1.2556 C.ar        1 MOL      -0.0625
     14 C14         3.8749   30.5783   -0.0924 C.ar        1 MOL       0.0075
     15 C15         4.9391   29.6337   -0.2695 C.ar        1 MOL      -0.0223
     16 C16         1.7357   34.5495    4.8199 C.ar        1 MOL       0.0684
     17 C17         0.6436   35.1525    5.4801 C.ar        1 MOL      -0.0343
     18 C18        -0.3389   35.8625    4.7608 C.ar        1 MOL      -0.0571
     19 C19        -0.2523   36.0078    3.3546 C.ar        1 MOL      -0.0016
     20 C20         0.8516   35.4165    2.6976 C.ar        1 MOL      -0.0571
     21 C21         1.8398   34.7272    3.4203 C.ar        1 MOL      -0.0343
     22 C22        -1.2424   36.7141    2.6238 C.2         1 MOL       0.0553
     23 C23         4.9669   28.4148    0.4551 C.ar        1 MOL      -0.0571
     24 C24         5.9849   27.4679    0.2438 C.ar        1 MOL      -0.0632
     25 C25         6.9848   27.7163   -0.7098 C.ar        1 MOL      -0.0635
     26 C26         6.9726   28.9097   -1.4488 C.ar        1 MOL      -0.0632
     27 C27         5.9593   29.8618   -1.2263 C.ar        1 MOL      -0.0571
     28 O28        -1.0573   37.0474    1.3270 O.co2       1 MOL      -0.5638
     29 O29        -2.4544   36.9978    3.1523 O.co2       1 MOL      -0.5638
     30 H1          4.8958   30.0855    2.1613 H           1 MOL       0.2176
     31 H2          2.6597   34.0936    6.5275 H           1 MOL       0.2187
     32 H3          5.6741   30.8130    6.5676 H           1 MOL       0.0849
     33 H4          5.7048   29.9089    4.3015 H           1 MOL       0.0586
     34 H5          1.9159   32.1978    2.1252 H           1 MOL       0.0537
     35 H6          0.8384   32.9408    0.1414 H           1 MOL       0.0591
     36 H7          1.5858   32.1497   -2.0233 H           1 MOL       0.0524
     37 H8          3.4178   30.6118   -2.1807 H           1 MOL       0.0594
     38 H9          0.5463   35.0731    6.4955 H           1 MOL       0.0545
     39 H10        -1.1145   36.2885    5.2775 H           1 MOL       0.0622
     40 H11         0.9508   35.4810    1.6870 H           1 MOL       0.0622
     41 H12         2.6534   34.3843    2.9068 H           1 MOL       0.0545
     42 H13         4.2343   28.1980    1.1352 H           1 MOL       0.0606
     43 H14         5.9937   26.5958    0.7789 H           1 MOL       0.0613
     44 H15         7.7249   27.0246   -0.8680 H           1 MOL       0.0603
     45 H16         7.6960   29.0893   -2.1455 H           1 MOL       0.0613
     46 H17         5.9724   30.7257   -1.7741 H           1 MOL       0.0606
@<TRIPOS>BOND
     1     1     5  ar
     2     1     6  ar
     3     6     2  ar
     4     2     7  ar
     5     7     3   1
     6     3     9   1
     7     6     4   1
     8     4    16   1
     9     5     8  ar
    10     7     8  ar
    11     9    10  ar
    12     9    14  ar
    13    10    11  ar
    14    11    12  ar
    15    12    13  ar
    16    13    14  ar
    17    14    15   1
    18    15    23  ar
    19    15    27  ar
    20    16    17  ar
    21    16    21  ar
    22    17    18  ar
    23    18    19  ar
    24    19    20  ar
    25    19    22   1
    26    20    21  ar
    27    22    28  ar
    28    22    29  ar
    29    23    24  ar
    30    24    25  ar
    31    25    26  ar
    32    26    27  ar
    33     3    30   1
    34     4    31   1
    35     5    32   1
    36     8    33   1
    37    10    34   1
    38    11    35   1
    39    12    36   1
    40    13    37   1
    41    17    38   1
    42    18    39   1
    43    20    40   1
    44    21    41   1
    45    23    42   1
    46    24    43   1
    47    25    44   1
    48    26    45   1
    49    27    46   1
@<TRIPOS>SUBSTRUCTURE
     1  MOL      5

