@<TRIPOS>MOLECULE
3uo4_ligand_019
    46    49
SMALL
GAST_HUCK
****
This file was generated by PARSER (from files_GN.cpp)

@<TRIPOS>ATOM
      1 N01         3.9186   29.8707    7.7189 N.ar        1 MOL      -0.2685
      2 N02         5.0186   29.3940    5.7170 N.ar        1 MOL      -0.2339
      3 N03         6.3401   27.4154    5.5209 N.pl3       1 MOL      -0.2537
      4 N04         3.6261   31.3447    5.9823 N.pl3       1 MOL      -0.2427
      5 C05         4.4025   28.7490    8.3137 C.ar        1 MOL       0.0015
      6 C06         4.2051   30.2140    6.4368 C.ar        1 MOL       0.1962
      7 C07         5.5484   28.2424    6.2487 C.ar        1 MOL       0.1353
      8 C08         5.2338   27.8914    7.5771 C.ar        1 MOL      -0.0013
      9 C09         6.7261   27.6556    4.2412 C.ar        1 MOL       0.0745
     10 C10         6.0385   26.9663    3.2190 C.ar        1 MOL      -0.0363
     11 C11         6.3056   27.2460    1.8680 C.ar        1 MOL      -0.0708
     12 C12         7.2715   28.2105    1.5335 C.ar        1 MOL      -0.0722
     13 C13         7.9787   28.8775    2.5462 C.ar        1 MOL      -0.0625
     14 C14         7.7245   28.6146    3.9153 C.ar        1 MOL       0.0075
     15 C15         8.5032   29.2927    4.9020 C.ar        1 MOL      -0.0223
     16 C16         3.6913   31.9552    4.7600 C.ar        1 MOL       0.0684
     17 C17         4.5867   31.6316    3.7073 C.ar        1 MOL      -0.0343
     18 C18         4.5794   32.3749    2.5104 C.ar        1 MOL      -0.0571
     19 C19         3.6834   33.4571    2.3408 C.ar        1 MOL      -0.0016
     20 C20         2.7690   33.7638    3.3738 C.ar        1 MOL      -0.0571
     21 C21         2.7929   33.0336    4.5725 C.ar        1 MOL      -0.0343
     22 C22         3.7181   34.2418    1.1784 C.2         1 MOL       0.0553
     23 C23         9.2094   28.5718    5.8925 C.ar        1 MOL      -0.0571
     24 C24        10.0133   29.2356    6.8381 C.ar        1 MOL      -0.0632
     25 C25        10.1302   30.6391    6.7987 C.ar        1 MOL      -0.0635
     26 C26         9.4513   31.3692    5.8080 C.ar        1 MOL      -0.0632
     27 C27         8.6399   30.7034    4.8754 C.ar        1 MOL      -0.0571
     28 O28         2.6856   34.1612    0.2974 O.co2       1 MOL      -0.5638
     29 O29         4.8823   34.8097    0.7868 O.co2       1 MOL      -0.5638
     30 H1          6.5904   26.5554    5.9130 H           1 MOL       0.2176
     31 H2          3.0438   31.7782    6.6287 H           1 MOL       0.2187
     32 H3          4.1523   28.5356    9.2900 H           1 MOL       0.0849
     33 H4          5.6146   27.0457    8.0106 H           1 MOL       0.0586
     34 H5          5.3212   26.2769    3.4481 H           1 MOL       0.0537
     35 H6          5.8009   26.7501    1.1303 H           1 MOL       0.0591
     36 H7          7.4594   28.4269    0.5501 H           1 MOL       0.0524
     37 H8          8.7053   29.5485    2.2716 H           1 MOL       0.0594
     38 H9          5.2576   30.8613    3.7981 H           1 MOL       0.0545
     39 H10         5.2324   32.1176    1.7631 H           1 MOL       0.0622
     40 H11         2.1134   34.5425    3.2736 H           1 MOL       0.0622
     41 H12         2.1331   33.2962    5.3174 H           1 MOL       0.0545
     42 H13         9.1665   27.5491    5.9225 H           1 MOL       0.0606
     43 H14        10.5230   28.7038    7.5460 H           1 MOL       0.0613
     44 H15        10.7116   31.1247    7.4832 H           1 MOL       0.0603
     45 H16         9.5532   32.3863    5.7669 H           1 MOL       0.0613
     46 H17         8.1510   31.2552    4.1674 H           1 MOL       0.0606
@<TRIPOS>BOND
     1     1     5  ar
     2     1     6  ar
     3     6     2  ar
     4     2     7  ar
     5     7     3   1
     6     3     9   1
     7     6     4   1
     8     4    16   1
     9     5     8  ar
    10     7     8  ar
    11     9    10  ar
    12     9    14  ar
    13    10    11  ar
    14    11    12  ar
    15    12    13  ar
    16    13    14  ar
    17    14    15   1
    18    15    23  ar
    19    15    27  ar
    20    16    17  ar
    21    16    21  ar
    22    17    18  ar
    23    18    19  ar
    24    19    20  ar
    25    19    22   1
    26    20    21  ar
    27    22    28  ar
    28    22    29  ar
    29    23    24  ar
    30    24    25  ar
    31    25    26  ar
    32    26    27  ar
    33     3    30   1
    34     4    31   1
    35     5    32   1
    36     8    33   1
    37    10    34   1
    38    11    35   1
    39    12    36   1
    40    13    37   1
    41    17    38   1
    42    18    39   1
    43    20    40   1
    44    21    41   1
    45    23    42   1
    46    24    43   1
    47    25    44   1
    48    26    45   1
    49    27    46   1
@<TRIPOS>SUBSTRUCTURE
     1  MOL      5

