@<TRIPOS>MOLECULE
3uo4_ligand_065
    46    49
SMALL
GAST_HUCK
****
This file was generated by PARSER (from files_GN.cpp)

@<TRIPOS>ATOM
      1 N01         4.0837   30.9767    0.9839 N.ar        1 MOL      -0.2685
      2 N02         4.4680   32.1194   -1.0084 N.ar        1 MOL      -0.2339
      3 N03         5.6977   31.2758   -2.7817 N.pl3       1 MOL      -0.2537
      4 N04         3.2249   33.1833    0.6376 N.pl3       1 MOL      -0.2427
      5 C05         4.7669   29.8962    0.5273 C.ar        1 MOL       0.0015
      6 C06         3.9021   32.0886    0.2269 C.ar        1 MOL       0.1962
      7 C07         5.1841   31.0900   -1.5361 C.ar        1 MOL       0.1353
      8 C08         5.3246   29.9140   -0.7617 C.ar        1 MOL      -0.0013
      9 C09         6.5078   30.4276   -3.4817 C.ar        1 MOL       0.0745
     10 C10         6.0460   30.0265   -4.7572 C.ar        1 MOL      -0.0363
     11 C11         6.7637   29.0882   -5.5211 C.ar        1 MOL      -0.0708
     12 C12         7.9744   28.5669   -5.0302 C.ar        1 MOL      -0.0722
     13 C13         8.4745   29.0021   -3.7885 C.ar        1 MOL      -0.0625
     14 C14         7.7600   29.9404   -3.0003 C.ar        1 MOL       0.0075
     15 C15         8.3497   30.3953   -1.7842 C.ar        1 MOL      -0.0223
     16 C16         2.5518   33.4255    1.8067 C.ar        1 MOL       0.0684
     17 C17         2.0487   32.4404    2.6947 C.ar        1 MOL      -0.0343
     18 C18         1.3515   32.8041    3.8632 C.ar        1 MOL      -0.0571
     19 C19         1.0910   34.1607    4.1532 C.ar        1 MOL      -0.0016
     20 C20         1.5676   35.1504    3.2681 C.ar        1 MOL      -0.0571
     21 C21         2.3013   34.7811    2.1235 C.ar        1 MOL      -0.0343
     22 C22         0.3709   34.5125    5.3148 C.2         1 MOL       0.0553
     23 C23         8.4911   31.7819   -1.5312 C.ar        1 MOL      -0.0571
     24 C24         9.0787   32.2379   -0.3315 C.ar        1 MOL      -0.0632
     25 C25         9.5254   31.3191    0.6377 C.ar        1 MOL      -0.0635
     26 C26         9.3870   29.9377    0.3972 C.ar        1 MOL      -0.0632
     27 C27         8.8042   29.4778   -0.8025 C.ar        1 MOL      -0.0571
     28 O28         0.5556   33.8119    6.4666 O.co2       1 MOL      -0.5638
     29 O29        -0.6030   35.4646    5.3053 O.co2       1 MOL      -0.5638
     30 H1          5.3965   32.0685   -3.2584 H           1 MOL       0.2176
     31 H2          3.2478   33.9261    0.0153 H           1 MOL       0.2187
     32 H3          4.8636   29.0680    1.1140 H           1 MOL       0.0849
     33 H4          5.8072   29.0828   -1.1250 H           1 MOL       0.0586
     34 H5          5.1591   30.3813   -5.1234 H           1 MOL       0.0537
     35 H6          6.4081   28.7854   -6.4297 H           1 MOL       0.0591
     36 H7          8.4977   27.8867   -5.5873 H           1 MOL       0.0524
     37 H8          9.3797   28.6404   -3.4814 H           1 MOL       0.0594
     38 H9          2.1550   31.4493    2.4962 H           1 MOL       0.0545
     39 H10         1.0094   32.0709    4.4872 H           1 MOL       0.0622
     40 H11         1.4200   36.1474    3.4661 H           1 MOL       0.0622
     41 H12         2.6671   35.5192    1.5182 H           1 MOL       0.0545
     42 H13         8.1794   32.4756   -2.2177 H           1 MOL       0.0606
     43 H14         9.1845   33.2459   -0.1614 H           1 MOL       0.0613
     44 H15         9.9484   31.6505    1.5047 H           1 MOL       0.0603
     45 H16         9.7043   29.2667    1.1018 H           1 MOL       0.0613
     46 H17         8.6929   28.4728   -0.9430 H           1 MOL       0.0606
@<TRIPOS>BOND
     1     1     5  ar
     2     1     6  ar
     3     6     2  ar
     4     2     7  ar
     5     7     3   1
     6     3     9   1
     7     6     4   1
     8     4    16   1
     9     5     8  ar
    10     7     8  ar
    11     9    10  ar
    12     9    14  ar
    13    10    11  ar
    14    11    12  ar
    15    12    13  ar
    16    13    14  ar
    17    14    15   1
    18    15    23  ar
    19    15    27  ar
    20    16    17  ar
    21    16    21  ar
    22    17    18  ar
    23    18    19  ar
    24    19    20  ar
    25    19    22   1
    26    20    21  ar
    27    22    28  ar
    28    22    29  ar
    29    23    24  ar
    30    24    25  ar
    31    25    26  ar
    32    26    27  ar
    33     3    30   1
    34     4    31   1
    35     5    32   1
    36     8    33   1
    37    10    34   1
    38    11    35   1
    39    12    36   1
    40    13    37   1
    41    17    38   1
    42    18    39   1
    43    20    40   1
    44    21    41   1
    45    23    42   1
    46    24    43   1
    47    25    44   1
    48    26    45   1
    49    27    46   1
@<TRIPOS>SUBSTRUCTURE
     1  MOL      5

