@<TRIPOS>MOLECULE
3uo4_ligand_011
    46    49
SMALL
GAST_HUCK
****
This file was generated by PARSER (from files_GN.cpp)

@<TRIPOS>ATOM
      1 N01         4.1865   29.5879    5.5853 N.ar        1 MOL      -0.2685
      2 N02         4.0688   31.0723    3.7991 N.ar        1 MOL      -0.2339
      3 N03         5.5460   30.8991    1.9214 N.pl3       1 MOL      -0.2537
      4 N04         2.6092   31.2974    5.6779 N.pl3       1 MOL      -0.2427
      5 C05         5.2046   28.9225    4.9862 C.ar        1 MOL       0.0015
      6 C06         3.5966   30.6650    5.0046 C.ar        1 MOL       0.1962
      7 C07         5.0912   30.4800    3.1321 C.ar        1 MOL       0.1353
      8 C08         5.6864   29.3518    3.7345 C.ar        1 MOL      -0.0013
      9 C09         5.1440   31.9283    1.0910 C.ar        1 MOL       0.0745
     10 C10         4.3382   33.0149    1.5170 C.ar        1 MOL      -0.0363
     11 C11         3.9037   34.0099    0.6233 C.ar        1 MOL      -0.0708
     12 C12         4.3072   33.9671   -0.7166 C.ar        1 MOL      -0.0722
     13 C13         5.1687   32.9496   -1.1505 C.ar        1 MOL      -0.0625
     14 C14         5.5891   31.9309   -0.2634 C.ar        1 MOL       0.0075
     15 C15         6.4916   30.9653   -0.7749 C.ar        1 MOL      -0.0223
     16 C16         1.8893   32.3987    5.2858 C.ar        1 MOL       0.0684
     17 C17         1.4315   33.2810    6.2867 C.ar        1 MOL      -0.0343
     18 C18         0.7200   34.4500    5.9474 C.ar        1 MOL      -0.0571
     19 C19         0.4517   34.7715    4.5963 C.ar        1 MOL      -0.0016
     20 C20         0.8926   33.8782    3.5966 C.ar        1 MOL      -0.0571
     21 C21         1.5581   32.6888    3.9389 C.ar        1 MOL      -0.0343
     22 C22        -0.2722   35.9345    4.2535 C.2         1 MOL       0.0553
     23 C23         7.8267   31.3376   -1.0632 C.ar        1 MOL      -0.0571
     24 C24         8.7209   30.4046   -1.6227 C.ar        1 MOL      -0.0632
     25 C25         8.2879   29.0959   -1.9055 C.ar        1 MOL      -0.0635
     26 C26         6.9603   28.7199   -1.6288 C.ar        1 MOL      -0.0632
     27 C27         6.0617   29.6488   -1.0673 C.ar        1 MOL      -0.0571
     28 O28         0.0574   36.6754    3.1663 O.co2       1 MOL      -0.5638
     29 O29        -1.3674   36.3017    4.9609 O.co2       1 MOL      -0.5638
     30 H1          6.2515   30.3399    1.5603 H           1 MOL       0.2176
     31 H2          2.4586   30.9904    6.5873 H           1 MOL       0.2187
     32 H3          5.6149   28.1133    5.4514 H           1 MOL       0.0849
     33 H4          6.4536   28.8509    3.2822 H           1 MOL       0.0586
     34 H5          4.0756   33.1226    2.4891 H           1 MOL       0.0537
     35 H6          3.2995   34.7681    0.9440 H           1 MOL       0.0591
     36 H7          3.9967   34.6852   -1.3703 H           1 MOL       0.0524
     37 H8          5.4864   32.9585   -2.1226 H           1 MOL       0.0594
     38 H9          1.6355   33.0873    7.2713 H           1 MOL       0.0545
     39 H10         0.4213   35.0811    6.6968 H           1 MOL       0.0622
     40 H11         0.6956   34.0594    2.6074 H           1 MOL       0.0622
     41 H12         1.7843   32.0313    3.1960 H           1 MOL       0.0545
     42 H13         8.1551   32.2876   -0.8727 H           1 MOL       0.0606
     43 H14         9.6822   30.6814   -1.8291 H           1 MOL       0.0613
     44 H15         8.9353   28.4219   -2.3141 H           1 MOL       0.0603
     45 H16         6.6438   27.7718   -1.8400 H           1 MOL       0.0613
     46 H17         5.0956   29.3661   -0.8876 H           1 MOL       0.0606
@<TRIPOS>BOND
     1     1     5  ar
     2     1     6  ar
     3     6     2  ar
     4     2     7  ar
     5     7     3   1
     6     3     9   1
     7     6     4   1
     8     4    16   1
     9     5     8  ar
    10     7     8  ar
    11     9    10  ar
    12     9    14  ar
    13    10    11  ar
    14    11    12  ar
    15    12    13  ar
    16    13    14  ar
    17    14    15   1
    18    15    23  ar
    19    15    27  ar
    20    16    17  ar
    21    16    21  ar
    22    17    18  ar
    23    18    19  ar
    24    19    20  ar
    25    19    22   1
    26    20    21  ar
    27    22    28  ar
    28    22    29  ar
    29    23    24  ar
    30    24    25  ar
    31    25    26  ar
    32    26    27  ar
    33     3    30   1
    34     4    31   1
    35     5    32   1
    36     8    33   1
    37    10    34   1
    38    11    35   1
    39    12    36   1
    40    13    37   1
    41    17    38   1
    42    18    39   1
    43    20    40   1
    44    21    41   1
    45    23    42   1
    46    24    43   1
    47    25    44   1
    48    26    45   1
    49    27    46   1
@<TRIPOS>SUBSTRUCTURE
     1  MOL      5

