@<TRIPOS>MOLECULE
3uo4_ligand_069
    46    49
SMALL
GAST_HUCK
****
This file was generated by PARSER (from files_GN.cpp)

@<TRIPOS>ATOM
      1 N01         7.3881   31.3203    5.1557 N.ar        1 MOL      -0.2685
      2 N02         7.9978   29.1088    5.6155 N.ar        1 MOL      -0.2339
      3 N03        10.2808   28.5470    5.9983 N.pl3       1 MOL      -0.2537
      4 N04         5.7477   29.6052    5.2795 N.pl3       1 MOL      -0.2427
      5 C05         8.6780   31.7282    5.2360 C.ar        1 MOL       0.0015
      6 C06         7.0280   30.0228    5.3519 C.ar        1 MOL       0.1962
      7 C07         9.3114   29.4545    5.7210 C.ar        1 MOL       0.1353
      8 C08         9.6852   30.8022    5.5476 C.ar        1 MOL      -0.0013
      9 C09        10.0998   27.2117    6.1187 C.ar        1 MOL       0.0745
     10 C10        10.0258   26.6806    7.4273 C.ar        1 MOL      -0.0363
     11 C11         9.9168   25.2911    7.6248 C.ar        1 MOL      -0.0708
     12 C12         9.8935   24.4281    6.5180 C.ar        1 MOL      -0.0722
     13 C13         9.9440   24.9504    5.2145 C.ar        1 MOL      -0.0625
     14 C14        10.0427   26.3441    4.9914 C.ar        1 MOL       0.0075
     15 C15        10.1145   26.8234    3.6534 C.ar        1 MOL      -0.0223
     16 C16         4.6777   30.4071    4.9955 C.ar        1 MOL       0.0684
     17 C17         4.0406   30.2943    3.7485 C.ar        1 MOL      -0.0343
     18 C18         2.9493   31.1236    3.4353 C.ar        1 MOL      -0.0571
     19 C19         2.4492   32.0617    4.3685 C.ar        1 MOL      -0.0016
     20 C20         3.0892   32.1557    5.6321 C.ar        1 MOL      -0.0571
     21 C21         4.2045   31.3429    5.9403 C.ar        1 MOL      -0.0343
     22 C22         1.3223   32.8810    4.0612 C.2         1 MOL       0.0553
     23 C23         9.1063   26.4998    2.7115 C.ar        1 MOL      -0.0571
     24 C24         9.1837   26.9618    1.3834 C.ar        1 MOL      -0.0632
     25 C25        10.2755   27.7459    0.9763 C.ar        1 MOL      -0.0635
     26 C26        11.2919   28.0651    1.8920 C.ar        1 MOL      -0.0632
     27 C27        11.2119   27.6033    3.2195 C.ar        1 MOL      -0.0571
     28 O28         0.7251   33.6428    4.9978 O.co2       1 MOL      -0.5638
     29 O29         0.7956   32.9396    2.8247 O.co2       1 MOL      -0.5638
     30 H1         11.1811   28.8839    6.1014 H           1 MOL       0.2176
     31 H2          5.5783   28.6604    5.3469 H           1 MOL       0.2187
     32 H3          8.9177   32.7096    5.0814 H           1 MOL       0.0849
     33 H4         10.6576   31.0930    5.6220 H           1 MOL       0.0586
     34 H5         10.0691   27.2989    8.2376 H           1 MOL       0.0537
     35 H6          9.8834   24.9170    8.5725 H           1 MOL       0.0591
     36 H7          9.8542   23.4193    6.6592 H           1 MOL       0.0524
     37 H8          9.9299   24.3007    4.4303 H           1 MOL       0.0594
     38 H9          4.3739   29.6219    3.0557 H           1 MOL       0.0545
     39 H10         2.5195   31.0266    2.5138 H           1 MOL       0.0622
     40 H11         2.7666   32.8145    6.3391 H           1 MOL       0.0622
     41 H12         4.6500   31.4322    6.8499 H           1 MOL       0.0545
     42 H13         8.3002   25.9312    2.9856 H           1 MOL       0.0606
     43 H14         8.4477   26.7232    0.7134 H           1 MOL       0.0613
     44 H15        10.3353   28.0824    0.0106 H           1 MOL       0.0603
     45 H16        12.0918   28.6269    1.5965 H           1 MOL       0.0613
     46 H17        11.9674   27.8347    3.8665 H           1 MOL       0.0606
@<TRIPOS>BOND
     1     1     5  ar
     2     1     6  ar
     3     6     2  ar
     4     2     7  ar
     5     7     3   1
     6     3     9   1
     7     6     4   1
     8     4    16   1
     9     5     8  ar
    10     7     8  ar
    11     9    10  ar
    12     9    14  ar
    13    10    11  ar
    14    11    12  ar
    15    12    13  ar
    16    13    14  ar
    17    14    15   1
    18    15    23  ar
    19    15    27  ar
    20    16    17  ar
    21    16    21  ar
    22    17    18  ar
    23    18    19  ar
    24    19    20  ar
    25    19    22   1
    26    20    21  ar
    27    22    28  ar
    28    22    29  ar
    29    23    24  ar
    30    24    25  ar
    31    25    26  ar
    32    26    27  ar
    33     3    30   1
    34     4    31   1
    35     5    32   1
    36     8    33   1
    37    10    34   1
    38    11    35   1
    39    12    36   1
    40    13    37   1
    41    17    38   1
    42    18    39   1
    43    20    40   1
    44    21    41   1
    45    23    42   1
    46    24    43   1
    47    25    44   1
    48    26    45   1
    49    27    46   1
@<TRIPOS>SUBSTRUCTURE
     1  MOL      5

