@<TRIPOS>MOLECULE
3uo4_ligand_075
    46    49
SMALL
GAST_HUCK
****
This file was generated by PARSER (from files_GN.cpp)

@<TRIPOS>ATOM
      1 N01         5.1298   31.2668    3.1409 N.ar        1 MOL      -0.2685
      2 N02         5.5209   31.2884    0.8371 N.ar        1 MOL      -0.2339
      3 N03         7.4282   30.1698   -0.1001 N.pl3       1 MOL      -0.2537
      4 N04         3.6772   32.4371    1.6380 N.pl3       1 MOL      -0.2427
      5 C05         6.2487   30.5290    3.3433 C.ar        1 MOL       0.0015
      6 C06         4.7456   31.6519    1.8913 C.ar        1 MOL       0.1962
      7 C07         6.6656   30.5586    0.9544 C.ar        1 MOL       0.1353
      8 C08         7.0524   30.1580    2.2486 C.ar        1 MOL      -0.0013
      9 C09         7.1513   30.3270   -1.4290 C.ar        1 MOL       0.0745
     10 C10         6.6951   31.5628   -1.9422 C.ar        1 MOL      -0.0363
     11 C11         6.4516   31.7294   -3.3200 C.ar        1 MOL      -0.0708
     12 C12         6.6678   30.6651   -4.2039 C.ar        1 MOL      -0.0722
     13 C13         7.1380   29.4385   -3.7144 C.ar        1 MOL      -0.0625
     14 C14         7.4034   29.2485   -2.3292 C.ar        1 MOL       0.0075
     15 C15         7.9234   27.9882   -1.9053 C.ar        1 MOL      -0.0223
     16 C16         2.8097   32.9840    2.5434 C.ar        1 MOL       0.0684
     17 C17         2.2643   32.2527    3.6261 C.ar        1 MOL      -0.0343
     18 C18         1.3472   32.8525    4.5063 C.ar        1 MOL      -0.0571
     19 C19         0.9603   34.1995    4.3332 C.ar        1 MOL      -0.0016
     20 C20         1.5153   34.9296    3.2564 C.ar        1 MOL      -0.0571
     21 C21         2.4115   34.3226    2.3637 C.ar        1 MOL      -0.0343
     22 C22         0.0302   34.7965    5.2190 C.2         1 MOL       0.0553
     23 C23         7.3888   27.3203   -0.7743 C.ar        1 MOL      -0.0571
     24 C24         7.9460   26.1066   -0.3310 C.ar        1 MOL      -0.0632
     25 C25         9.0162   25.5177   -1.0319 C.ar        1 MOL      -0.0635
     26 C26         9.5454   26.1577   -2.1653 C.ar        1 MOL      -0.0632
     27 C27         9.0109   27.3887   -2.5921 C.ar        1 MOL      -0.0571
     28 O28        -1.1621   34.2146    5.5089 O.co2       1 MOL      -0.5638
     29 O29         0.3142   35.9605    5.8597 O.co2       1 MOL      -0.5638
     30 H1          8.1678   29.5875    0.1162 H           1 MOL       0.2176
     31 H2          3.5839   32.7484    0.7208 H           1 MOL       0.2187
     32 H3          6.5005   30.2390    4.2935 H           1 MOL       0.0849
     33 H4          7.9057   29.5985    2.3977 H           1 MOL       0.0586
     34 H5          6.5722   32.3730   -1.3280 H           1 MOL       0.0537
     35 H6          6.1348   32.6378   -3.6746 H           1 MOL       0.0591
     36 H7          6.4778   30.7843   -5.2022 H           1 MOL       0.0524
     37 H8          7.2847   28.6682   -4.3860 H           1 MOL       0.0594
     38 H9          2.5153   31.2655    3.7615 H           1 MOL       0.0545
     39 H10         0.9703   32.2969    5.2778 H           1 MOL       0.0622
     40 H11         1.2610   35.9110    3.1044 H           1 MOL       0.0622
     41 H12         2.7841   34.8638    1.5833 H           1 MOL       0.0545
     42 H13         6.5873   27.7129   -0.2660 H           1 MOL       0.0606
     43 H14         7.5674   25.6420    0.5023 H           1 MOL       0.0613
     44 H15         9.4126   24.6253   -0.7144 H           1 MOL       0.0603
     45 H16        10.3257   25.7357   -2.6724 H           1 MOL       0.0613
     46 H17         9.4303   27.8542   -3.4032 H           1 MOL       0.0606
@<TRIPOS>BOND
     1     1     5  ar
     2     1     6  ar
     3     6     2  ar
     4     2     7  ar
     5     7     3   1
     6     3     9   1
     7     6     4   1
     8     4    16   1
     9     5     8  ar
    10     7     8  ar
    11     9    10  ar
    12     9    14  ar
    13    10    11  ar
    14    11    12  ar
    15    12    13  ar
    16    13    14  ar
    17    14    15   1
    18    15    23  ar
    19    15    27  ar
    20    16    17  ar
    21    16    21  ar
    22    17    18  ar
    23    18    19  ar
    24    19    20  ar
    25    19    22   1
    26    20    21  ar
    27    22    28  ar
    28    22    29  ar
    29    23    24  ar
    30    24    25  ar
    31    25    26  ar
    32    26    27  ar
    33     3    30   1
    34     4    31   1
    35     5    32   1
    36     8    33   1
    37    10    34   1
    38    11    35   1
    39    12    36   1
    40    13    37   1
    41    17    38   1
    42    18    39   1
    43    20    40   1
    44    21    41   1
    45    23    42   1
    46    24    43   1
    47    25    44   1
    48    26    45   1
    49    27    46   1
@<TRIPOS>SUBSTRUCTURE
     1  MOL      5

