@<TRIPOS>MOLECULE
3uo4_ligand_077
    46    49
SMALL
GAST_HUCK
****
This file was generated by PARSER (from files_GN.cpp)

@<TRIPOS>ATOM
      1 N01         6.9933   26.1182    3.6378 N.ar        1 MOL      -0.2685
      2 N02         5.6866   28.0398    3.6463 N.ar        1 MOL      -0.2339
      3 N03         4.9792   29.0503    5.6755 N.pl3       1 MOL      -0.2537
      4 N04         6.4843   27.0761    1.5921 N.pl3       1 MOL      -0.2427
      5 C05         6.9688   26.0603    4.9964 C.ar        1 MOL       0.0015
      6 C06         6.3563   27.0845    2.9390 C.ar        1 MOL       0.1962
      7 C07         5.6224   28.0670    5.0022 C.ar        1 MOL       0.1353
      8 C08         6.2774   27.0446    5.7226 C.ar        1 MOL      -0.0013
      9 C09         4.4043   30.1815    5.1632 C.ar        1 MOL       0.0745
     10 C10         3.1335   30.5065    5.6772 C.ar        1 MOL      -0.0363
     11 C11         2.4513   31.6586    5.2541 C.ar        1 MOL      -0.0708
     12 C12         3.0443   32.5117    4.3063 C.ar        1 MOL      -0.0722
     13 C13         4.3138   32.2188    3.7981 C.ar        1 MOL      -0.0625
     14 C14         5.0187   31.0541    4.2069 C.ar        1 MOL       0.0075
     15 C15         6.3144   30.8074    3.6704 C.ar        1 MOL      -0.0223
     16 C16         6.0584   27.9813    0.6716 C.ar        1 MOL       0.0684
     17 C17         4.8691   28.7644    0.7843 C.ar        1 MOL      -0.0343
     18 C18         4.5600   29.7486   -0.1352 C.ar        1 MOL      -0.0571
     19 C19         5.3794   29.9698   -1.2823 C.ar        1 MOL      -0.0016
     20 C20         6.5076   29.1376   -1.4499 C.ar        1 MOL      -0.0571
     21 C21         6.8327   28.1597   -0.4927 C.ar        1 MOL      -0.0343
     22 C22         5.0640   30.9842   -2.2032 C.2         1 MOL       0.0553
     23 C23         7.4303   30.5459    4.4956 C.ar        1 MOL      -0.0571
     24 C24         8.6734   30.1852    3.9338 C.ar        1 MOL      -0.0632
     25 C25         8.8147   30.0776    2.5423 C.ar        1 MOL      -0.0635
     26 C26         7.7294   30.3761    1.7006 C.ar        1 MOL      -0.0632
     27 C27         6.4980   30.7505    2.2643 C.ar        1 MOL      -0.0571
     28 O28         5.0047   32.2925   -1.8324 O.co2       1 MOL      -0.5638
     29 O29         4.8625   30.7176   -3.5157 O.co2       1 MOL      -0.5638
     30 H1          4.8757   28.9174    6.6321 H           1 MOL       0.2176
     31 H2          7.0806   26.3823    1.2489 H           1 MOL       0.2187
     32 H3          7.4611   25.3086    5.4819 H           1 MOL       0.0849
     33 H4          6.2756   27.0296    6.7430 H           1 MOL       0.0586
     34 H5          2.6830   29.8915    6.3636 H           1 MOL       0.0537
     35 H6          1.5236   31.8726    5.6281 H           1 MOL       0.0591
     36 H7          2.5477   33.3563    4.0046 H           1 MOL       0.0524
     37 H8          4.7323   32.8717    3.1303 H           1 MOL       0.0594
     38 H9          4.2589   28.6457    1.6071 H           1 MOL       0.0545
     39 H10         3.7308   30.3343    0.0078 H           1 MOL       0.0622
     40 H11         7.1118   29.2420   -2.2692 H           1 MOL       0.0622
     41 H12         7.6775   27.5915   -0.6399 H           1 MOL       0.0545
     42 H13         7.3402   30.5858    5.5167 H           1 MOL       0.0606
     43 H14         9.4666   29.9925    4.5447 H           1 MOL       0.0613
     44 H15         9.7030   29.7862    2.1342 H           1 MOL       0.0603
     45 H16         7.8307   30.3118    0.6843 H           1 MOL       0.0613
     46 H17         5.7156   30.9539    1.6422 H           1 MOL       0.0606
@<TRIPOS>BOND
     1     1     5  ar
     2     1     6  ar
     3     6     2  ar
     4     2     7  ar
     5     7     3   1
     6     3     9   1
     7     6     4   1
     8     4    16   1
     9     5     8  ar
    10     7     8  ar
    11     9    10  ar
    12     9    14  ar
    13    10    11  ar
    14    11    12  ar
    15    12    13  ar
    16    13    14  ar
    17    14    15   1
    18    15    23  ar
    19    15    27  ar
    20    16    17  ar
    21    16    21  ar
    22    17    18  ar
    23    18    19  ar
    24    19    20  ar
    25    19    22   1
    26    20    21  ar
    27    22    28  ar
    28    22    29  ar
    29    23    24  ar
    30    24    25  ar
    31    25    26  ar
    32    26    27  ar
    33     3    30   1
    34     4    31   1
    35     5    32   1
    36     8    33   1
    37    10    34   1
    38    11    35   1
    39    12    36   1
    40    13    37   1
    41    17    38   1
    42    18    39   1
    43    20    40   1
    44    21    41   1
    45    23    42   1
    46    24    43   1
    47    25    44   1
    48    26    45   1
    49    27    46   1
@<TRIPOS>SUBSTRUCTURE
     1  MOL      5

