@<TRIPOS>MOLECULE
3uo4_ligand_056
    46    49
SMALL
GAST_HUCK
****
This file was generated by PARSER (from files_GN.cpp)

@<TRIPOS>ATOM
      1 N01         4.4146   30.3197    5.0713 N.ar        1 MOL      -0.2685
      2 N02         6.4147   31.1838    4.2195 N.ar        1 MOL      -0.2339
      3 N03         8.3129   29.9141    3.8819 N.pl3       1 MOL      -0.2537
      4 N04         4.5887   32.6114    4.4422 N.pl3       1 MOL      -0.2427
      5 C05         4.9655   29.0940    5.2235 C.ar        1 MOL       0.0015
      6 C06         5.1231   31.3798    4.5851 C.ar        1 MOL       0.1962
      7 C07         7.0279   29.9736    4.3177 C.ar        1 MOL       0.1353
      8 C08         6.3048   28.8878    4.8655 C.ar        1 MOL      -0.0013
      9 C09         9.0924   28.7992    3.8346 C.ar        1 MOL       0.0745
     10 C10        10.2062   28.7573    4.6970 C.ar        1 MOL      -0.0363
     11 C11        11.0054   27.6068    4.7656 C.ar        1 MOL      -0.0708
     12 C12        10.7095   26.4892    3.9660 C.ar        1 MOL      -0.0722
     13 C13         9.6317   26.5362    3.0641 C.ar        1 MOL      -0.0625
     14 C14         8.8234   27.6933    2.9743 C.ar        1 MOL       0.0075
     15 C15         7.7842   27.7398    2.0108 C.ar        1 MOL      -0.0223
     16 C16         3.2938   32.8974    4.6996 C.ar        1 MOL       0.0684
     17 C17         2.8831   33.2597    5.9976 C.ar        1 MOL      -0.0343
     18 C18         1.5259   33.4973    6.2660 C.ar        1 MOL      -0.0571
     19 C19         0.5618   33.4024    5.2387 C.ar        1 MOL      -0.0016
     20 C20         0.9787   33.0437    3.9367 C.ar        1 MOL      -0.0571
     21 C21         2.3366   32.7919    3.6707 C.ar        1 MOL      -0.0343
     22 C22        -0.7780   33.6870    5.5093 C.2         1 MOL       0.0553
     23 C23         7.9098   28.5597    0.8652 C.ar        1 MOL      -0.0571
     24 C24         6.8601   28.6428   -0.0689 C.ar        1 MOL      -0.0632
     25 C25         5.6707   27.9222    0.1427 C.ar        1 MOL      -0.0635
     26 C26         5.5455   27.0864    1.2659 C.ar        1 MOL      -0.0632
     27 C27         6.5999   26.9863    2.1911 C.ar        1 MOL      -0.0571
     28 O28        -1.1952   34.9637    5.4024 O.co2       1 MOL      -0.5638
     29 O29        -1.4993   32.8526    6.2871 O.co2       1 MOL      -0.5638
     30 H1          8.7477   30.7540    3.6646 H           1 MOL       0.2176
     31 H2          5.1484   33.3283    4.0939 H           1 MOL       0.2187
     32 H3          4.4102   28.3288    5.6046 H           1 MOL       0.0849
     33 H4          6.7331   27.9710    5.0076 H           1 MOL       0.0586
     34 H5         10.4185   29.5546    5.3049 H           1 MOL       0.0537
     35 H6         11.7865   27.5811    5.4211 H           1 MOL       0.0591
     36 H7         11.2867   25.6499    4.0260 H           1 MOL       0.0524
     37 H8          9.4432   25.7235    2.4713 H           1 MOL       0.0594
     38 H9          3.5714   33.3443    6.7515 H           1 MOL       0.0545
     39 H10         1.2469   33.7545    7.2176 H           1 MOL       0.0622
     40 H11         0.2981   32.9479    3.1786 H           1 MOL       0.0622
     41 H12         2.6261   32.5146    2.7290 H           1 MOL       0.0545
     42 H13         8.7663   29.0995    0.7035 H           1 MOL       0.0606
     43 H14         6.9597   29.2326   -0.8987 H           1 MOL       0.0613
     44 H15         4.9023   28.0058   -0.5234 H           1 MOL       0.0603
     45 H16         4.6848   26.5586    1.4204 H           1 MOL       0.0613
     46 H17         6.4886   26.3829    3.0111 H           1 MOL       0.0606
@<TRIPOS>BOND
     1     1     5  ar
     2     1     6  ar
     3     6     2  ar
     4     2     7  ar
     5     7     3   1
     6     3     9   1
     7     6     4   1
     8     4    16   1
     9     5     8  ar
    10     7     8  ar
    11     9    10  ar
    12     9    14  ar
    13    10    11  ar
    14    11    12  ar
    15    12    13  ar
    16    13    14  ar
    17    14    15   1
    18    15    23  ar
    19    15    27  ar
    20    16    17  ar
    21    16    21  ar
    22    17    18  ar
    23    18    19  ar
    24    19    20  ar
    25    19    22   1
    26    20    21  ar
    27    22    28  ar
    28    22    29  ar
    29    23    24  ar
    30    24    25  ar
    31    25    26  ar
    32    26    27  ar
    33     3    30   1
    34     4    31   1
    35     5    32   1
    36     8    33   1
    37    10    34   1
    38    11    35   1
    39    12    36   1
    40    13    37   1
    41    17    38   1
    42    18    39   1
    43    20    40   1
    44    21    41   1
    45    23    42   1
    46    24    43   1
    47    25    44   1
    48    26    45   1
    49    27    46   1
@<TRIPOS>SUBSTRUCTURE
     1  MOL      5

