@<TRIPOS>MOLECULE
3uo4_ligand_070
    46    49
SMALL
GAST_HUCK
****
This file was generated by PARSER (from files_GN.cpp)

@<TRIPOS>ATOM
      1 N01         6.8204   30.6751    4.4234 N.ar        1 MOL      -0.2685
      2 N02         5.7237   30.7249    2.3534 N.ar        1 MOL      -0.2339
      3 N03         6.4286   29.6216    0.4730 N.pl3       1 MOL      -0.2537
      4 N04         4.8317   31.8759    4.2528 N.pl3       1 MOL      -0.2427
      5 C05         7.8329   29.9507    3.8943 C.ar        1 MOL       0.0015
      6 C06         5.7711   31.1025    3.6613 C.ar        1 MOL       0.1962
      7 C07         6.6847   29.9619    1.7604 C.ar        1 MOL       0.1353
      8 C08         7.8031   29.5909    2.5356 C.ar        1 MOL      -0.0013
      9 C09         7.0368   28.7215   -0.3650 C.ar        1 MOL       0.0745
     10 C10         7.0398   29.0907   -1.7308 C.ar        1 MOL      -0.0363
     11 C11         7.5684   28.2382   -2.7089 C.ar        1 MOL      -0.0708
     12 C12         8.0810   26.9837   -2.3430 C.ar        1 MOL      -0.0722
     13 C13         8.0620   26.5851   -0.9976 C.ar        1 MOL      -0.0625
     14 C14         7.5265   27.4252    0.0059 C.ar        1 MOL       0.0075
     15 C15         7.4668   26.9321    1.3419 C.ar        1 MOL      -0.0223
     16 C16         3.8447   32.6226    3.6686 C.ar        1 MOL       0.0684
     17 C17         2.6358   32.7822    4.3842 C.ar        1 MOL      -0.0343
     18 C18         1.6013   33.5901    3.8868 C.ar        1 MOL      -0.0571
     19 C19         1.7494   34.2518    2.6454 C.ar        1 MOL      -0.0016
     20 C20         2.9644   34.1275    1.9429 C.ar        1 MOL      -0.0571
     21 C21         4.0026   33.3386    2.4545 C.ar        1 MOL      -0.0343
     22 C22         0.7035   35.0029    2.0916 C.2         1 MOL       0.0553
     23 C23         8.6206   26.3989    1.9508 C.ar        1 MOL      -0.0571
     24 C24         8.6231   26.0939    3.3275 C.ar        1 MOL      -0.0632
     25 C25         7.4586   26.2714    4.0909 C.ar        1 MOL      -0.0635
     26 C26         6.2895   26.7563    3.4793 C.ar        1 MOL      -0.0632
     27 C27         6.2847   27.0774    2.1101 C.ar        1 MOL      -0.0571
     28 O28        -0.1873   34.3598    1.2998 O.co2       1 MOL      -0.5638
     29 O29         0.2988   36.1576    2.6784 O.co2       1 MOL      -0.5638
     30 H1          5.6870   30.1035    0.0778 H           1 MOL       0.2176
     31 H2          4.8770   31.9230    5.2251 H           1 MOL       0.2187
     32 H3          8.6266   29.6735    4.4830 H           1 MOL       0.0849
     33 H4          8.5793   29.0586    2.1343 H           1 MOL       0.0586
     34 H5          6.6571   29.9916   -2.0250 H           1 MOL       0.0537
     35 H6          7.5825   28.5223   -3.6886 H           1 MOL       0.0591
     36 H7          8.4686   26.3563   -3.0533 H           1 MOL       0.0524
     37 H8          8.4098   25.6514   -0.7577 H           1 MOL       0.0594
     38 H9          2.5001   32.2925    5.2719 H           1 MOL       0.0545
     39 H10         0.7301   33.6693    4.4171 H           1 MOL       0.0622
     40 H11         3.1065   34.6307    1.0607 H           1 MOL       0.0622
     41 H12         4.8884   33.3162    1.9479 H           1 MOL       0.0545
     42 H13         9.4959   26.2988    1.4270 H           1 MOL       0.0606
     43 H14         9.4725   25.7243    3.7675 H           1 MOL       0.0613
     44 H15         7.4585   26.0473    5.0915 H           1 MOL       0.0603
     45 H16         5.4335   26.8790    4.0293 H           1 MOL       0.0613
     46 H17         5.4227   27.4369    1.6839 H           1 MOL       0.0606
@<TRIPOS>BOND
     1     1     5  ar
     2     1     6  ar
     3     6     2  ar
     4     2     7  ar
     5     7     3   1
     6     3     9   1
     7     6     4   1
     8     4    16   1
     9     5     8  ar
    10     7     8  ar
    11     9    10  ar
    12     9    14  ar
    13    10    11  ar
    14    11    12  ar
    15    12    13  ar
    16    13    14  ar
    17    14    15   1
    18    15    23  ar
    19    15    27  ar
    20    16    17  ar
    21    16    21  ar
    22    17    18  ar
    23    18    19  ar
    24    19    20  ar
    25    19    22   1
    26    20    21  ar
    27    22    28  ar
    28    22    29  ar
    29    23    24  ar
    30    24    25  ar
    31    25    26  ar
    32    26    27  ar
    33     3    30   1
    34     4    31   1
    35     5    32   1
    36     8    33   1
    37    10    34   1
    38    11    35   1
    39    12    36   1
    40    13    37   1
    41    17    38   1
    42    18    39   1
    43    20    40   1
    44    21    41   1
    45    23    42   1
    46    24    43   1
    47    25    44   1
    48    26    45   1
    49    27    46   1
@<TRIPOS>SUBSTRUCTURE
     1  MOL      5

