@<TRIPOS>MOLECULE
3uo4_ligand_007
    46    49
SMALL
GAST_HUCK
****
This file was generated by PARSER (from files_GN.cpp)

@<TRIPOS>ATOM
      1 N01         5.2894   30.9828    1.5374 N.ar        1 MOL      -0.2685
      2 N02         3.2451   31.6629    0.6336 N.ar        1 MOL      -0.2339
      3 N03         2.4597   30.7892   -1.4435 N.pl3       1 MOL      -0.2537
      4 N04         4.0344   32.5254    2.7447 N.pl3       1 MOL      -0.2427
      5 C05         5.5103   30.1736    0.4740 C.ar        1 MOL       0.0015
      6 C06         4.1704   31.7441    1.6365 C.ar        1 MOL       0.1962
      7 C07         3.3952   30.8842   -0.4647 C.ar        1 MOL       0.1353
      8 C08         4.5643   30.1024   -0.5648 C.ar        1 MOL      -0.0013
      9 C09         1.2516   31.4400   -1.5439 C.ar        1 MOL       0.0745
     10 C10         1.1244   32.8170   -1.2439 C.ar        1 MOL      -0.0363
     11 C11        -0.1163   33.4727   -1.3427 C.ar        1 MOL      -0.0708
     12 C12        -1.2479   32.7678   -1.7802 C.ar        1 MOL      -0.0722
     13 C13        -1.1331   31.4154   -2.1382 C.ar        1 MOL      -0.0625
     14 C14         0.1112   30.7490   -2.0382 C.ar        1 MOL       0.0075
     15 C15         0.1750   29.3909   -2.4183 C.ar        1 MOL      -0.0223
     16 C16         3.0302   33.4160    3.0286 C.ar        1 MOL       0.0684
     17 C17         2.7146   33.6676    4.3824 C.ar        1 MOL      -0.0343
     18 C18         1.6659   34.5486    4.7265 C.ar        1 MOL      -0.0571
     19 C19         0.9221   35.2132    3.7248 C.ar        1 MOL      -0.0016
     20 C20         1.2727   35.0041    2.3767 C.ar        1 MOL      -0.0571
     21 C21         2.3246   34.1436    2.0441 C.ar        1 MOL      -0.0343
     22 C22        -0.1417   36.0804    4.0514 C.2         1 MOL       0.0553
     23 C23        -0.1386   28.3793   -1.4850 C.ar        1 MOL      -0.0571
     24 C24        -0.0581   27.0238   -1.8554 C.ar        1 MOL      -0.0632
     25 C25         0.3211   26.6729   -3.1644 C.ar        1 MOL      -0.0635
     26 C26         0.6161   27.6776   -4.1042 C.ar        1 MOL      -0.0632
     27 C27         0.5519   29.0335   -3.7323 C.ar        1 MOL      -0.0571
     28 O28        -0.9555   35.8118    5.1008 O.co2       1 MOL      -0.5638
     29 O29        -0.4132   37.1512    3.2702 O.co2       1 MOL      -0.5638
     30 H1          2.6169   30.0952   -2.1050 H           1 MOL       0.2176
     31 H2          4.6853   32.3790    3.4408 H           1 MOL       0.2187
     32 H3          6.3671   29.6198    0.4299 H           1 MOL       0.0849
     33 H4          4.7255   29.4898   -1.3711 H           1 MOL       0.0586
     34 H5          1.9463   33.3636   -0.9970 H           1 MOL       0.0537
     35 H6         -0.1954   34.4632   -1.1127 H           1 MOL       0.0591
     36 H7         -2.1496   33.2437   -1.8523 H           1 MOL       0.0524
     37 H8         -1.9643   30.9213   -2.4721 H           1 MOL       0.0594
     38 H9          3.2421   33.2083    5.1250 H           1 MOL       0.0545
     39 H10         1.4682   34.7190    5.7132 H           1 MOL       0.0622
     40 H11         0.7545   35.4538    1.6147 H           1 MOL       0.0622
     41 H12         2.5858   34.0792    1.0685 H           1 MOL       0.0545
     42 H13        -0.4305   28.6252   -0.5363 H           1 MOL       0.0606
     43 H14        -0.2797   26.2933   -1.1754 H           1 MOL       0.0613
     44 H15         0.3793   25.6886   -3.4332 H           1 MOL       0.0603
     45 H16         0.8872   27.4221   -5.0565 H           1 MOL       0.0613
     46 H17         0.7800   29.7532   -4.4235 H           1 MOL       0.0606
@<TRIPOS>BOND
     1     1     5  ar
     2     1     6  ar
     3     6     2  ar
     4     2     7  ar
     5     7     3   1
     6     3     9   1
     7     6     4   1
     8     4    16   1
     9     5     8  ar
    10     7     8  ar
    11     9    10  ar
    12     9    14  ar
    13    10    11  ar
    14    11    12  ar
    15    12    13  ar
    16    13    14  ar
    17    14    15   1
    18    15    23  ar
    19    15    27  ar
    20    16    17  ar
    21    16    21  ar
    22    17    18  ar
    23    18    19  ar
    24    19    20  ar
    25    19    22   1
    26    20    21  ar
    27    22    28  ar
    28    22    29  ar
    29    23    24  ar
    30    24    25  ar
    31    25    26  ar
    32    26    27  ar
    33     3    30   1
    34     4    31   1
    35     5    32   1
    36     8    33   1
    37    10    34   1
    38    11    35   1
    39    12    36   1
    40    13    37   1
    41    17    38   1
    42    18    39   1
    43    20    40   1
    44    21    41   1
    45    23    42   1
    46    24    43   1
    47    25    44   1
    48    26    45   1
    49    27    46   1
@<TRIPOS>SUBSTRUCTURE
     1  MOL      5

