@<TRIPOS>MOLECULE
3uo4_ligand_091
    46    49
SMALL
GAST_HUCK
****
This file was generated by PARSER (from files_GN.cpp)

@<TRIPOS>ATOM
      1 N01         5.4391   29.6185    4.9502 N.ar        1 MOL      -0.2685
      2 N02         7.6342   28.8297    4.7208 N.ar        1 MOL      -0.2339
      3 N03         8.7377   28.9904    2.5943 N.pl3       1 MOL      -0.2537
      4 N04         6.3670   28.4778    6.7447 N.pl3       1 MOL      -0.2427
      5 C05         5.4489   30.1104    3.6880 C.ar        1 MOL       0.0015
      6 C06         6.5170   28.9935    5.4928 C.ar        1 MOL       0.1962
      7 C07         7.7025   29.2600    3.4280 C.ar        1 MOL       0.1353
      8 C08         6.5908   29.9423    2.8882 C.ar        1 MOL      -0.0013
      9 C09         9.8642   28.2080    2.7283 C.ar        1 MOL       0.0745
     10 C10        10.9442   28.6535    1.9237 C.ar        1 MOL      -0.0363
     11 C11        12.1825   27.9867    1.9149 C.ar        1 MOL      -0.0708
     12 C12        12.3585   26.8419    2.6970 C.ar        1 MOL      -0.0722
     13 C13        11.2825   26.3420    3.4452 C.ar        1 MOL      -0.0625
     14 C14        10.0146   26.9920    3.4727 C.ar        1 MOL       0.0075
     15 C15         8.9549   26.3356    4.1785 C.ar        1 MOL      -0.0223
     16 C16         7.2863   27.7992    7.4999 C.ar        1 MOL       0.0684
     17 C17         8.6590   28.1286    7.5085 C.ar        1 MOL      -0.0343
     18 C18         9.5703   27.3741    8.2580 C.ar        1 MOL      -0.0571
     19 C19         9.1333   26.2687    9.0200 C.ar        1 MOL      -0.0016
     20 C20         7.7571   25.9506    9.0368 C.ar        1 MOL      -0.0571
     21 C21         6.8407   26.7192    8.2976 C.ar        1 MOL      -0.0343
     22 C22        10.0691   25.4622    9.7028 C.2         1 MOL       0.0553
     23 C23         7.6434   26.2655    3.6564 C.ar        1 MOL      -0.0571
     24 C24         6.5906   25.7395    4.4363 C.ar        1 MOL      -0.0632
     25 C25         6.8636   25.1157    5.6670 C.ar        1 MOL      -0.0635
     26 C26         8.1883   25.0395    6.1353 C.ar        1 MOL      -0.0632
     27 C27         9.2052   25.7045    5.4301 C.ar        1 MOL      -0.0571
     28 O28         9.9560   24.1153    9.6672 O.co2       1 MOL      -0.5638
     29 O29        11.0547   26.0102   10.4518 O.co2       1 MOL      -0.5638
     30 H1          8.6660   29.4376    1.7366 H           1 MOL       0.2176
     31 H2          5.4534   28.4864    7.0858 H           1 MOL       0.2187
     32 H3          4.6140   30.5605    3.3113 H           1 MOL       0.0849
     33 H4          6.5805   30.2580    1.9166 H           1 MOL       0.0586
     34 H5         10.8444   29.4795    1.3281 H           1 MOL       0.0537
     35 H6         12.9512   28.3294    1.3345 H           1 MOL       0.0591
     36 H7         13.2584   26.3496    2.6955 H           1 MOL       0.0524
     37 H8         11.4395   25.4653    3.9490 H           1 MOL       0.0594
     38 H9          9.0120   28.9031    6.9450 H           1 MOL       0.0545
     39 H10        10.5620   27.5918    8.1827 H           1 MOL       0.0622
     40 H11         7.4184   25.1485    9.5707 H           1 MOL       0.0622
     41 H12         5.8557   26.4560    8.3076 H           1 MOL       0.0545
     42 H13         7.4280   26.6366    2.7325 H           1 MOL       0.0606
     43 H14         5.6311   25.7978    4.1000 H           1 MOL       0.0613
     44 H15         6.1057   24.7437    6.2449 H           1 MOL       0.0603
     45 H16         8.3992   24.5707    7.0237 H           1 MOL       0.0613
     46 H17        10.1322   25.7500    5.8597 H           1 MOL       0.0606
@<TRIPOS>BOND
     1     1     5  ar
     2     1     6  ar
     3     6     2  ar
     4     2     7  ar
     5     7     3   1
     6     3     9   1
     7     6     4   1
     8     4    16   1
     9     5     8  ar
    10     7     8  ar
    11     9    10  ar
    12     9    14  ar
    13    10    11  ar
    14    11    12  ar
    15    12    13  ar
    16    13    14  ar
    17    14    15   1
    18    15    23  ar
    19    15    27  ar
    20    16    17  ar
    21    16    21  ar
    22    17    18  ar
    23    18    19  ar
    24    19    20  ar
    25    19    22   1
    26    20    21  ar
    27    22    28  ar
    28    22    29  ar
    29    23    24  ar
    30    24    25  ar
    31    25    26  ar
    32    26    27  ar
    33     3    30   1
    34     4    31   1
    35     5    32   1
    36     8    33   1
    37    10    34   1
    38    11    35   1
    39    12    36   1
    40    13    37   1
    41    17    38   1
    42    18    39   1
    43    20    40   1
    44    21    41   1
    45    23    42   1
    46    24    43   1
    47    25    44   1
    48    26    45   1
    49    27    46   1
@<TRIPOS>SUBSTRUCTURE
     1  MOL      5

