@<TRIPOS>MOLECULE
3uo4_ligand_005
    46    49
SMALL
GAST_HUCK
****
This file was generated by PARSER (from files_GN.cpp)

@<TRIPOS>ATOM
      1 N01         3.4203   30.8002    6.0710 N.ar        1 MOL      -0.2685
      2 N02         4.9838   30.0050    4.5262 N.ar        1 MOL      -0.2339
      3 N03         6.2518   28.0342    5.0062 N.pl3       1 MOL      -0.2537
      4 N04         3.7348   31.8979    3.9649 N.pl3       1 MOL      -0.2427
      5 C05         3.7228   29.7988    6.9392 C.ar        1 MOL       0.0015
      6 C06         4.0425   30.9285    4.8661 C.ar        1 MOL       0.1962
      7 C07         5.3339   28.9690    5.3424 C.ar        1 MOL       0.1353
      8 C08         4.6922   28.8438    6.5898 C.ar        1 MOL      -0.0013
      9 C09         6.9123   27.9521    3.8202 C.ar        1 MOL       0.0745
     10 C10         6.3615   27.1440    2.8017 C.ar        1 MOL      -0.0363
     11 C11         7.0473   26.9577    1.5893 C.ar        1 MOL      -0.0708
     12 C12         8.2898   27.5842    1.3830 C.ar        1 MOL      -0.0722
     13 C13         8.8596   28.3774    2.3972 C.ar        1 MOL      -0.0625
     14 C14         8.1819   28.5597    3.6257 C.ar        1 MOL       0.0075
     15 C15         8.7936   29.3408    4.6371 C.ar        1 MOL      -0.0223
     16 C16         2.8253   32.9221    4.0559 C.ar        1 MOL       0.0684
     17 C17         2.3328   33.4599    5.2687 C.ar        1 MOL      -0.0343
     18 C18         1.3821   34.4950    5.2723 C.ar        1 MOL      -0.0571
     19 C19         0.9098   35.0479    4.0608 C.ar        1 MOL      -0.0016
     20 C20         1.4495   34.5645    2.8463 C.ar        1 MOL      -0.0571
     21 C21         2.3885   33.5156    2.8493 C.ar        1 MOL      -0.0343
     22 C22        -0.1085   36.0330    4.0793 C.2         1 MOL       0.0553
     23 C23         9.5042   28.7277    5.6946 C.ar        1 MOL      -0.0571
     24 C24        10.1225   29.5168    6.6828 C.ar        1 MOL      -0.0632
     25 C25        10.0320   30.9188    6.6231 C.ar        1 MOL      -0.0635
     26 C26         9.3183   31.5343    5.5802 C.ar        1 MOL      -0.0632
     27 C27         8.6983   30.7489    4.5921 C.ar        1 MOL      -0.0571
     28 O28        -1.0891   35.9875    5.0194 O.co2       1 MOL      -0.5638
     29 O29        -0.2611   36.9249    3.0641 O.co2       1 MOL      -0.5638
     30 H1          6.4219   27.3239    5.6486 H           1 MOL       0.2176
     31 H2          4.1793   31.8126    3.1089 H           1 MOL       0.2187
     32 H3          3.2316   29.7386    7.8336 H           1 MOL       0.0849
     33 H4          4.9057   28.0698    7.2302 H           1 MOL       0.0586
     34 H5          5.4694   26.6721    2.9467 H           1 MOL       0.0537
     35 H6          6.6557   26.3579    0.8662 H           1 MOL       0.0591
     36 H7          8.7974   27.4400    0.5055 H           1 MOL       0.0524
     37 H8          9.7783   28.7994    2.2419 H           1 MOL       0.0594
     38 H9          2.6688   33.1167    6.1721 H           1 MOL       0.0545
     39 H10         1.0445   34.8414    6.1739 H           1 MOL       0.0622
     40 H11         1.1379   34.9434    1.9497 H           1 MOL       0.0622
     41 H12         2.7343   33.1615    1.9496 H           1 MOL       0.0545
     42 H13         9.5834   27.7069    5.7456 H           1 MOL       0.0606
     43 H14        10.6441   29.0688    7.4405 H           1 MOL       0.0613
     44 H15        10.4841   31.4924    7.3382 H           1 MOL       0.0603
     45 H16         9.2539   32.5536    5.5334 H           1 MOL       0.0613
     46 H17         8.1818   31.2077    3.8371 H           1 MOL       0.0606
@<TRIPOS>BOND
     1     1     5  ar
     2     1     6  ar
     3     6     2  ar
     4     2     7  ar
     5     7     3   1
     6     3     9   1
     7     6     4   1
     8     4    16   1
     9     5     8  ar
    10     7     8  ar
    11     9    10  ar
    12     9    14  ar
    13    10    11  ar
    14    11    12  ar
    15    12    13  ar
    16    13    14  ar
    17    14    15   1
    18    15    23  ar
    19    15    27  ar
    20    16    17  ar
    21    16    21  ar
    22    17    18  ar
    23    18    19  ar
    24    19    20  ar
    25    19    22   1
    26    20    21  ar
    27    22    28  ar
    28    22    29  ar
    29    23    24  ar
    30    24    25  ar
    31    25    26  ar
    32    26    27  ar
    33     3    30   1
    34     4    31   1
    35     5    32   1
    36     8    33   1
    37    10    34   1
    38    11    35   1
    39    12    36   1
    40    13    37   1
    41    17    38   1
    42    18    39   1
    43    20    40   1
    44    21    41   1
    45    23    42   1
    46    24    43   1
    47    25    44   1
    48    26    45   1
    49    27    46   1
@<TRIPOS>SUBSTRUCTURE
     1  MOL      5

