@<TRIPOS>MOLECULE
3uo4_ligand_082
    46    49
SMALL
GAST_HUCK
****
This file was generated by PARSER (from files_GN.cpp)

@<TRIPOS>ATOM
      1 N01         6.4054   30.9226    1.4300 N.ar        1 MOL      -0.2685
      2 N02         7.3807   30.2869    3.4582 N.ar        1 MOL      -0.2339
      3 N03         9.4069   29.0566    3.5238 N.pl3       1 MOL      -0.2537
      4 N04         5.3119   31.2822    3.5390 N.pl3       1 MOL      -0.2427
      5 C05         7.4873   30.4660    0.7463 C.ar        1 MOL       0.0015
      6 C06         6.3477   30.8484    2.7889 C.ar        1 MOL       0.1962
      7 C07         8.4665   29.7486    2.8359 C.ar        1 MOL       0.1353
      8 C08         8.5543   29.8556    1.4300 C.ar        1 MOL      -0.0013
      9 C09         9.3970   28.7185    4.8584 C.ar        1 MOL       0.0745
     10 C10        10.6250   28.9233    5.5253 C.ar        1 MOL      -0.0363
     11 C11        10.7404   28.7241    6.9104 C.ar        1 MOL      -0.0708
     12 C12         9.6358   28.2648    7.6442 C.ar        1 MOL      -0.0722
     13 C13         8.4253   27.9953    6.9917 C.ar        1 MOL      -0.0625
     14 C14         8.2806   28.1977    5.5928 C.ar        1 MOL       0.0075
     15 C15         7.0220   27.8848    4.9923 C.ar        1 MOL      -0.0223
     16 C16         4.2175   31.9137    3.0472 C.ar        1 MOL       0.0684
     17 C17         4.1107   33.3104    3.1855 C.ar        1 MOL      -0.0343
     18 C18         3.0062   33.9898    2.6449 C.ar        1 MOL      -0.0571
     19 C19         1.9772   33.2809    1.9796 C.ar        1 MOL      -0.0016
     20 C20         2.0784   31.8720    1.8798 C.ar        1 MOL      -0.0571
     21 C21         3.1884   31.1935    2.4119 C.ar        1 MOL      -0.0343
     22 C22         0.8482   33.9494    1.4556 C.2         1 MOL       0.0553
     23 C23         6.9456   27.1287    3.7948 C.ar        1 MOL      -0.0571
     24 C24         5.7381   27.0279    3.0791 C.ar        1 MOL      -0.0632
     25 C25         4.5706   27.6326    3.5768 C.ar        1 MOL      -0.0635
     26 C26         4.6094   28.3335    4.7963 C.ar        1 MOL      -0.0632
     27 C27         5.8234   28.4586    5.4950 C.ar        1 MOL      -0.0571
     28 O28         0.1104   33.3860    0.4751 O.co2       1 MOL      -0.5638
     29 O29         0.5522   35.2216    1.8063 O.co2       1 MOL      -0.5638
     30 H1         10.2021   28.8180    3.0230 H           1 MOL       0.2176
     31 H2          5.3880   31.2124    4.5071 H           1 MOL       0.2187
     32 H3          7.5220   30.5698   -0.2689 H           1 MOL       0.0849
     33 H4          9.3525   29.4758    0.9164 H           1 MOL       0.0586
     34 H5         11.4475   29.2643    5.0142 H           1 MOL       0.0537
     35 H6         11.6206   28.9249    7.3891 H           1 MOL       0.0591
     36 H7          9.7156   28.1172    8.6553 H           1 MOL       0.0524
     37 H8          7.6442   27.6414    7.5523 H           1 MOL       0.0594
     38 H9          4.8487   33.8317    3.6583 H           1 MOL       0.0545
     39 H10         2.9684   35.0069    2.7237 H           1 MOL       0.0622
     40 H11         1.3367   31.3257    1.4392 H           1 MOL       0.0622
     41 H12         3.2384   30.1783    2.3464 H           1 MOL       0.0545
     42 H13         7.7891   26.7121    3.3931 H           1 MOL       0.0606
     43 H14         5.7172   26.5529    2.1748 H           1 MOL       0.0613
     44 H15         3.7008   27.5894    3.0373 H           1 MOL       0.0603
     45 H16         3.7677   28.8023    5.1400 H           1 MOL       0.0613
     46 H17         5.8413   29.0464    6.3334 H           1 MOL       0.0606
@<TRIPOS>BOND
     1     1     5  ar
     2     1     6  ar
     3     6     2  ar
     4     2     7  ar
     5     7     3   1
     6     3     9   1
     7     6     4   1
     8     4    16   1
     9     5     8  ar
    10     7     8  ar
    11     9    10  ar
    12     9    14  ar
    13    10    11  ar
    14    11    12  ar
    15    12    13  ar
    16    13    14  ar
    17    14    15   1
    18    15    23  ar
    19    15    27  ar
    20    16    17  ar
    21    16    21  ar
    22    17    18  ar
    23    18    19  ar
    24    19    20  ar
    25    19    22   1
    26    20    21  ar
    27    22    28  ar
    28    22    29  ar
    29    23    24  ar
    30    24    25  ar
    31    25    26  ar
    32    26    27  ar
    33     3    30   1
    34     4    31   1
    35     5    32   1
    36     8    33   1
    37    10    34   1
    38    11    35   1
    39    12    36   1
    40    13    37   1
    41    17    38   1
    42    18    39   1
    43    20    40   1
    44    21    41   1
    45    23    42   1
    46    24    43   1
    47    25    44   1
    48    26    45   1
    49    27    46   1
@<TRIPOS>SUBSTRUCTURE
     1  MOL      5

