@<TRIPOS>MOLECULE
3uo4_ligand_018
    46    49
SMALL
GAST_HUCK
****
This file was generated by PARSER (from files_GN.cpp)

@<TRIPOS>ATOM
      1 N01         6.5571   30.3156    4.5690 N.ar        1 MOL      -0.2685
      2 N02         6.1168   28.0222    4.5780 N.ar        1 MOL      -0.2339
      3 N03         6.9399   26.5617    6.1737 N.pl3       1 MOL      -0.2537
      4 N04         5.1956   29.3356    2.8837 N.pl3       1 MOL      -0.2427
      5 C05         7.2838   30.2131    5.7070 C.ar        1 MOL       0.0015
      6 C06         5.9544   29.2370    4.0004 C.ar        1 MOL       0.1962
      7 C07         6.8362   27.8350    5.7166 C.ar        1 MOL       0.1353
      8 C08         7.4284   28.9607    6.3314 C.ar        1 MOL      -0.0013
      9 C09         7.6658   26.1422    7.2483 C.ar        1 MOL       0.0745
     10 C10         6.9542   25.6348    8.3547 C.ar        1 MOL      -0.0363
     11 C11         7.6358   25.2341    9.5169 C.ar        1 MOL      -0.0708
     12 C12         9.0335   25.3531    9.5891 C.ar        1 MOL      -0.0722
     13 C13         9.7573   25.8208    8.4792 C.ar        1 MOL      -0.0625
     14 C14         9.0870   26.1922    7.2908 C.ar        1 MOL       0.0075
     15 C15         9.8492   26.5351    6.1460 C.ar        1 MOL      -0.0223
     16 C16         4.9338   30.5047    2.2492 C.ar        1 MOL       0.0684
     17 C17         5.7464   30.9160    1.1729 C.ar        1 MOL      -0.0343
     18 C18         5.5079   32.1505    0.5376 C.ar        1 MOL      -0.0571
     19 C19         4.4399   32.9743    0.9604 C.ar        1 MOL      -0.0016
     20 C20         3.6174   32.5498    2.0264 C.ar        1 MOL      -0.0571
     21 C21         3.8648   31.3230    2.6697 C.ar        1 MOL      -0.0343
     22 C22         4.1875   34.2037    0.3275 C.2         1 MOL       0.0553
     23 C23        10.4827   27.7932    6.0547 C.ar        1 MOL      -0.0571
     24 C24        11.1565   28.1597    4.8735 C.ar        1 MOL      -0.0632
     25 C25        11.2592   27.2512    3.8048 C.ar        1 MOL      -0.0635
     26 C26        10.6889   25.9718    3.9147 C.ar        1 MOL      -0.0632
     27 C27         9.9743   25.6220    5.0748 C.ar        1 MOL      -0.0571
     28 O28         5.0211   35.2461    0.5246 O.co2       1 MOL      -0.5638
     29 O29         3.1632   34.3146   -0.5508 O.co2       1 MOL      -0.5638
     30 H1          6.3900   25.8977    5.7283 H           1 MOL       0.2176
     31 H2          4.8050   28.5224    2.5226 H           1 MOL       0.2187
     32 H3          7.7192   31.0494    6.1011 H           1 MOL       0.0849
     33 H4          7.9494   28.8774    7.2054 H           1 MOL       0.0586
     34 H5          5.9338   25.5632    8.3221 H           1 MOL       0.0537
     35 H6          7.1173   24.8705   10.3146 H           1 MOL       0.0591
     36 H7          9.5241   25.0800   10.4423 H           1 MOL       0.0524
     37 H8         10.7762   25.8554    8.5394 H           1 MOL       0.0594
     38 H9          6.5237   30.3301    0.8602 H           1 MOL       0.0545
     39 H10         6.1237   32.4374   -0.2323 H           1 MOL       0.0622
     40 H11         2.8431   33.1391    2.3527 H           1 MOL       0.0622
     41 H12         3.2747   31.0454    3.4584 H           1 MOL       0.0545
     42 H13        10.4264   28.4574    6.8316 H           1 MOL       0.0606
     43 H14        11.5784   29.0860    4.7890 H           1 MOL       0.0613
     44 H15        11.7439   27.5163    2.9464 H           1 MOL       0.0603
     45 H16        10.7649   25.3064    3.1425 H           1 MOL       0.0613
     46 H17         9.5549   24.6928    5.1352 H           1 MOL       0.0606
@<TRIPOS>BOND
     1     1     5  ar
     2     1     6  ar
     3     6     2  ar
     4     2     7  ar
     5     7     3   1
     6     3     9   1
     7     6     4   1
     8     4    16   1
     9     5     8  ar
    10     7     8  ar
    11     9    10  ar
    12     9    14  ar
    13    10    11  ar
    14    11    12  ar
    15    12    13  ar
    16    13    14  ar
    17    14    15   1
    18    15    23  ar
    19    15    27  ar
    20    16    17  ar
    21    16    21  ar
    22    17    18  ar
    23    18    19  ar
    24    19    20  ar
    25    19    22   1
    26    20    21  ar
    27    22    28  ar
    28    22    29  ar
    29    23    24  ar
    30    24    25  ar
    31    25    26  ar
    32    26    27  ar
    33     3    30   1
    34     4    31   1
    35     5    32   1
    36     8    33   1
    37    10    34   1
    38    11    35   1
    39    12    36   1
    40    13    37   1
    41    17    38   1
    42    18    39   1
    43    20    40   1
    44    21    41   1
    45    23    42   1
    46    24    43   1
    47    25    44   1
    48    26    45   1
    49    27    46   1
@<TRIPOS>SUBSTRUCTURE
     1  MOL      5

