@<TRIPOS>MOLECULE
3uo4_ligand_058
    46    49
SMALL
GAST_HUCK
****
This file was generated by PARSER (from files_GN.cpp)

@<TRIPOS>ATOM
      1 N01         4.8792   30.3117   -1.0836 N.ar        1 MOL      -0.2685
      2 N02         4.4475   30.5588    1.1963 N.ar        1 MOL      -0.2339
      3 N03         5.4532   29.1098    2.8066 N.pl3       1 MOL      -0.2537
      4 N04         3.5099   32.0628   -0.3985 N.pl3       1 MOL      -0.2427
      5 C05         5.6673   29.2381   -0.8316 C.ar        1 MOL       0.0015
      6 C06         4.2505   30.9768   -0.0837 C.ar        1 MOL       0.1962
      7 C07         5.2221   29.4851    1.5259 C.ar        1 MOL       0.1353
      8 C08         5.8606   28.7901    0.4851 C.ar        1 MOL      -0.0013
      9 C09         4.9793   29.6749    3.9596 C.ar        1 MOL       0.0745
     10 C10         3.6545   30.1695    4.0470 C.ar        1 MOL      -0.0363
     11 C11         3.1660   30.7352    5.2335 C.ar        1 MOL      -0.0708
     12 C12         3.9908   30.8141    6.3604 C.ar        1 MOL      -0.0722
     13 C13         5.3018   30.3174    6.3011 C.ar        1 MOL      -0.0625
     14 C14         5.8042   29.7282    5.1168 C.ar        1 MOL       0.0075
     15 C15         7.1206   29.1918    5.1440 C.ar        1 MOL      -0.0223
     16 C16         2.8422   32.8334    0.5052 C.ar        1 MOL       0.0684
     17 C17         3.3062   34.1354    0.7691 C.ar        1 MOL      -0.0343
     18 C18         2.6488   34.9292    1.7280 C.ar        1 MOL      -0.0571
     19 C19         1.5171   34.4384    2.4184 C.ar        1 MOL      -0.0016
     20 C20         1.0458   33.1415    2.1195 C.ar        1 MOL      -0.0571
     21 C21         1.6985   32.3423    1.1662 C.ar        1 MOL      -0.0343
     22 C22         0.8530   35.2288    3.3799 C.2         1 MOL       0.0553
     23 C23         7.3075   27.7920    5.0738 C.ar        1 MOL      -0.0571
     24 C24         8.5998   27.2402    5.1638 C.ar        1 MOL      -0.0632
     25 C25         9.7192   28.0768    5.3204 C.ar        1 MOL      -0.0635
     26 C26         9.5430   29.4717    5.3889 C.ar        1 MOL      -0.0632
     27 C27         8.2497   30.0285    5.3071 C.ar        1 MOL      -0.0571
     28 O28         0.5122   34.6958    4.5792 O.co2       1 MOL      -0.5638
     29 O29         0.2254   36.3697    2.9997 O.co2       1 MOL      -0.5638
     30 H1          6.1237   28.4213    2.9174 H           1 MOL       0.2176
     31 H2          3.5761   32.3870   -1.3095 H           1 MOL       0.2187
     32 H3          6.1253   28.7662   -1.6074 H           1 MOL       0.0849
     33 H4          6.4605   27.9875    0.6763 H           1 MOL       0.0586
     34 H5          3.0200   30.0977    3.2522 H           1 MOL       0.0537
     35 H6          2.2052   31.0863    5.2804 H           1 MOL       0.0591
     36 H7          3.6330   31.2075    7.2305 H           1 MOL       0.0524
     37 H8          5.8741   30.3631    7.1452 H           1 MOL       0.0594
     38 H9          4.1427   34.4875    0.2960 H           1 MOL       0.0545
     39 H10         3.0270   35.8588    1.9315 H           1 MOL       0.0622
     40 H11         0.2066   32.7697    2.5766 H           1 MOL       0.0622
     41 H12         1.3341   31.4113    0.9538 H           1 MOL       0.0545
     42 H13         6.5051   27.1641    4.9780 H           1 MOL       0.0606
     43 H14         8.7218   26.2266    5.1251 H           1 MOL       0.0613
     44 H15        10.6554   27.6728    5.3903 H           1 MOL       0.0603
     45 H16        10.3556   30.0804    5.5085 H           1 MOL       0.0613
     46 H17         8.1420   31.0451    5.3726 H           1 MOL       0.0606
@<TRIPOS>BOND
     1     1     5  ar
     2     1     6  ar
     3     6     2  ar
     4     2     7  ar
     5     7     3   1
     6     3     9   1
     7     6     4   1
     8     4    16   1
     9     5     8  ar
    10     7     8  ar
    11     9    10  ar
    12     9    14  ar
    13    10    11  ar
    14    11    12  ar
    15    12    13  ar
    16    13    14  ar
    17    14    15   1
    18    15    23  ar
    19    15    27  ar
    20    16    17  ar
    21    16    21  ar
    22    17    18  ar
    23    18    19  ar
    24    19    20  ar
    25    19    22   1
    26    20    21  ar
    27    22    28  ar
    28    22    29  ar
    29    23    24  ar
    30    24    25  ar
    31    25    26  ar
    32    26    27  ar
    33     3    30   1
    34     4    31   1
    35     5    32   1
    36     8    33   1
    37    10    34   1
    38    11    35   1
    39    12    36   1
    40    13    37   1
    41    17    38   1
    42    18    39   1
    43    20    40   1
    44    21    41   1
    45    23    42   1
    46    24    43   1
    47    25    44   1
    48    26    45   1
    49    27    46   1
@<TRIPOS>SUBSTRUCTURE
     1  MOL      5

