@<TRIPOS>MOLECULE
3uo4_ligand_080
    46    49
SMALL
GAST_HUCK
****
This file was generated by PARSER (from files_GN.cpp)

@<TRIPOS>ATOM
      1 N01         6.3598   33.3905   -2.5336 N.ar        1 MOL      -0.2685
      2 N02         4.0671   33.7018   -2.1954 N.ar        1 MOL      -0.2339
      3 N03         2.5959   34.0929   -4.0291 N.pl3       1 MOL      -0.2537
      4 N04         5.5179   33.2484   -0.3624 N.pl3       1 MOL      -0.2427
      5 C05         6.2093   33.5626   -3.8709 C.ar        1 MOL       0.0015
      6 C06         5.3038   33.4674   -1.6805 C.ar        1 MOL       0.1962
      7 C07         3.8366   33.8616   -3.5272 C.ar        1 MOL       0.1353
      8 C08         4.9342   33.8158   -4.4092 C.ar        1 MOL      -0.0013
      9 C09         1.4203   34.1658   -3.3310 C.ar        1 MOL       0.0745
     10 C10         1.0617   33.1467   -2.4139 C.ar        1 MOL      -0.0363
     11 C11        -0.1468   33.2167   -1.6950 C.ar        1 MOL      -0.0708
     12 C12        -1.0193   34.2960   -1.8966 C.ar        1 MOL      -0.0722
     13 C13        -0.6816   35.3118   -2.8087 C.ar        1 MOL      -0.0625
     14 C14         0.5288   35.2559   -3.5457 C.ar        1 MOL       0.0075
     15 C15         0.8394   36.3183   -4.4389 C.ar        1 MOL      -0.0223
     16 C16         4.5580   33.3008    0.5992 C.ar        1 MOL       0.0684
     17 C17         3.8312   34.4883    0.8201 C.ar        1 MOL      -0.0343
     18 C18         2.8635   34.5539    1.8390 C.ar        1 MOL      -0.0571
     19 C19         2.5828   33.4272    2.6494 C.ar        1 MOL      -0.0016
     20 C20         3.3148   32.2372    2.4161 C.ar        1 MOL      -0.0571
     21 C21         4.3043   32.1800    1.4144 C.ar        1 MOL      -0.0343
     22 C22         1.6039   33.4910    3.6789 C.2         1 MOL       0.0553
     23 C23         1.3626   37.5400   -3.9451 C.ar        1 MOL      -0.0571
     24 C24         1.6937   38.5846   -4.8267 C.ar        1 MOL      -0.0632
     25 C25         1.5151   38.4235   -6.2117 C.ar        1 MOL      -0.0635
     26 C26         0.9944   37.2183   -6.7150 C.ar        1 MOL      -0.0632
     27 C27         0.6502   36.1746   -5.8341 C.ar        1 MOL      -0.0571
     28 O28         1.0696   34.6670    4.0851 O.co2       1 MOL      -0.5638
     29 O29         1.1718   32.3848    4.3293 O.co2       1 MOL      -0.5638
     30 H1          2.5531   34.3023   -4.9723 H           1 MOL       0.2176
     31 H2          6.4072   32.9599   -0.0945 H           1 MOL       0.2187
     32 H3          7.0201   33.4864   -4.4878 H           1 MOL       0.0849
     33 H4          4.8130   33.9481   -5.4152 H           1 MOL       0.0586
     34 H5          1.6684   32.3355   -2.2785 H           1 MOL       0.0537
     35 H6         -0.3980   32.4738   -1.0363 H           1 MOL       0.0591
     36 H7         -1.9051   34.3406   -1.3830 H           1 MOL       0.0524
     37 H8         -1.3383   36.0859   -2.9434 H           1 MOL       0.0594
     38 H9          4.0237   35.3246    0.2591 H           1 MOL       0.0545
     39 H10         2.3691   35.4385    1.9866 H           1 MOL       0.0622
     40 H11         3.1461   31.3987    2.9740 H           1 MOL       0.0622
     41 H12         4.8256   31.3129    1.2674 H           1 MOL       0.0545
     42 H13         1.5194   37.6687   -2.9420 H           1 MOL       0.0606
     43 H14         2.0747   39.4601   -4.4607 H           1 MOL       0.0613
     44 H15         1.7656   39.1813   -6.8530 H           1 MOL       0.0603
     45 H16         0.8680   37.0996   -7.7227 H           1 MOL       0.0613
     46 H17         0.2632   35.3076   -6.2197 H           1 MOL       0.0606
@<TRIPOS>BOND
     1     1     5  ar
     2     1     6  ar
     3     6     2  ar
     4     2     7  ar
     5     7     3   1
     6     3     9   1
     7     6     4   1
     8     4    16   1
     9     5     8  ar
    10     7     8  ar
    11     9    10  ar
    12     9    14  ar
    13    10    11  ar
    14    11    12  ar
    15    12    13  ar
    16    13    14  ar
    17    14    15   1
    18    15    23  ar
    19    15    27  ar
    20    16    17  ar
    21    16    21  ar
    22    17    18  ar
    23    18    19  ar
    24    19    20  ar
    25    19    22   1
    26    20    21  ar
    27    22    28  ar
    28    22    29  ar
    29    23    24  ar
    30    24    25  ar
    31    25    26  ar
    32    26    27  ar
    33     3    30   1
    34     4    31   1
    35     5    32   1
    36     8    33   1
    37    10    34   1
    38    11    35   1
    39    12    36   1
    40    13    37   1
    41    17    38   1
    42    18    39   1
    43    20    40   1
    44    21    41   1
    45    23    42   1
    46    24    43   1
    47    25    44   1
    48    26    45   1
    49    27    46   1
@<TRIPOS>SUBSTRUCTURE
     1  MOL      5

