@<TRIPOS>MOLECULE
3uo4_ligand_063
    46    49
SMALL
GAST_HUCK
****
This file was generated by PARSER (from files_GN.cpp)

@<TRIPOS>ATOM
      1 N01         5.5822   30.2005    6.8219 N.ar        1 MOL      -0.2685
      2 N02         5.7015   29.4811    4.6087 N.ar        1 MOL      -0.2339
      3 N03         7.0779   27.6484    3.9736 N.pl3       1 MOL      -0.2537
      4 N04         4.3094   31.3280    5.2427 N.pl3       1 MOL      -0.2427
      5 C05         6.4374   29.2193    7.2129 C.ar        1 MOL       0.0015
      6 C06         5.2020   30.3503    5.5270 C.ar        1 MOL       0.1962
      7 C07         6.5574   28.4702    4.9167 C.ar        1 MOL       0.1353
      8 C08         6.9509   28.3201    6.2611 C.ar        1 MOL      -0.0013
      9 C09         6.8702   27.7151    2.6208 C.ar        1 MOL       0.0745
     10 C10         5.5759   27.9259    2.0862 C.ar        1 MOL      -0.0363
     11 C11         5.3765   28.0245    0.6991 C.ar        1 MOL      -0.0708
     12 C12         6.4651   27.9026   -0.1774 C.ar        1 MOL      -0.0722
     13 C13         7.7513   27.6623    0.3328 C.ar        1 MOL      -0.0625
     14 C14         7.9646   27.5551    1.7273 C.ar        1 MOL       0.0075
     15 C15         9.2867   27.3480    2.1963 C.ar        1 MOL      -0.0223
     16 C16         3.7222   31.6299    4.0448 C.ar        1 MOL       0.0684
     17 C17         2.3824   32.0746    4.0807 C.ar        1 MOL      -0.0343
     18 C18         1.6884   32.3854    2.8943 C.ar        1 MOL      -0.0571
     19 C19         2.3156   32.2624    1.6311 C.ar        1 MOL      -0.0016
     20 C20         3.6691   31.8501    1.6023 C.ar        1 MOL      -0.0571
     21 C21         4.3654   31.5509    2.7882 C.ar        1 MOL      -0.0343
     22 C22         1.6159   32.5509    0.4288 C.2         1 MOL       0.0553
     23 C23        10.2359   28.3943    2.1481 C.ar        1 MOL      -0.0571
     24 C24        11.5459   28.1861    2.6168 C.ar        1 MOL      -0.0632
     25 C25        11.9215   26.9326    3.1299 C.ar        1 MOL      -0.0635
     26 C26        10.9842   25.8858    3.1814 C.ar        1 MOL      -0.0632
     27 C27         9.6707   26.0924    2.7202 C.ar        1 MOL      -0.0571
     28 O28         0.3262   32.9638    0.4242 O.co2       1 MOL      -0.5638
     29 O29         2.2093   32.4275   -0.7832 O.co2       1 MOL      -0.5638
     30 H1          7.7643   27.0355    4.2783 H           1 MOL       0.2176
     31 H2          3.9634   31.8096    6.0117 H           1 MOL       0.2187
     32 H3          6.7060   29.1448    8.1951 H           1 MOL       0.0849
     33 H4          7.6011   27.5841    6.5463 H           1 MOL       0.0586
     34 H5          4.7655   28.0058    2.7060 H           1 MOL       0.0537
     35 H6          4.4371   28.1861    0.3285 H           1 MOL       0.0591
     36 H7          6.3196   27.9881   -1.1870 H           1 MOL       0.0524
     37 H8          8.5316   27.5641   -0.3233 H           1 MOL       0.0594
     38 H9          1.8908   32.1506    4.9770 H           1 MOL       0.0545
     39 H10         0.7088   32.6823    2.9686 H           1 MOL       0.0622
     40 H11         4.1674   31.7602    0.7143 H           1 MOL       0.0622
     41 H12         5.3493   31.2934    2.7224 H           1 MOL       0.0545
     42 H13         9.9782   29.3141    1.7789 H           1 MOL       0.0606
     43 H14        12.2279   28.9470    2.5834 H           1 MOL       0.0613
     44 H15        12.8752   26.7805    3.4645 H           1 MOL       0.0603
     45 H16        11.2584   24.9718    3.5522 H           1 MOL       0.0613
     46 H17         8.9981   25.3214    2.7627 H           1 MOL       0.0606
@<TRIPOS>BOND
     1     1     5  ar
     2     1     6  ar
     3     6     2  ar
     4     2     7  ar
     5     7     3   1
     6     3     9   1
     7     6     4   1
     8     4    16   1
     9     5     8  ar
    10     7     8  ar
    11     9    10  ar
    12     9    14  ar
    13    10    11  ar
    14    11    12  ar
    15    12    13  ar
    16    13    14  ar
    17    14    15   1
    18    15    23  ar
    19    15    27  ar
    20    16    17  ar
    21    16    21  ar
    22    17    18  ar
    23    18    19  ar
    24    19    20  ar
    25    19    22   1
    26    20    21  ar
    27    22    28  ar
    28    22    29  ar
    29    23    24  ar
    30    24    25  ar
    31    25    26  ar
    32    26    27  ar
    33     3    30   1
    34     4    31   1
    35     5    32   1
    36     8    33   1
    37    10    34   1
    38    11    35   1
    39    12    36   1
    40    13    37   1
    41    17    38   1
    42    18    39   1
    43    20    40   1
    44    21    41   1
    45    23    42   1
    46    24    43   1
    47    25    44   1
    48    26    45   1
    49    27    46   1
@<TRIPOS>SUBSTRUCTURE
     1  MOL      5

