@<TRIPOS>MOLECULE
3uo4_ligand_093
    46    49
SMALL
GAST_HUCK
****
This file was generated by PARSER (from files_GN.cpp)

@<TRIPOS>ATOM
      1 N01         4.7039   33.0137   -3.6081 N.ar        1 MOL      -0.2685
      2 N02         5.2190   32.3063   -1.4430 N.ar        1 MOL      -0.2339
      3 N03         6.9802   30.7820   -1.0184 N.pl3       1 MOL      -0.2537
      4 N04         3.3854   33.7618   -1.8311 N.pl3       1 MOL      -0.2427
      5 C05         5.7338   32.2861   -4.1135 C.ar        1 MOL       0.0015
      6 C06         4.4360   33.0489   -2.2734 C.ar        1 MOL       0.1962
      7 C07         6.2502   31.5392   -1.8714 C.ar        1 MOL       0.1353
      8 C08         6.5470   31.5354   -3.2482 C.ar        1 MOL      -0.0013
      9 C09         6.8137   30.5853    0.3290 C.ar        1 MOL       0.0745
     10 C10         8.0218   30.4670    1.0454 C.ar        1 MOL      -0.0363
     11 C11         8.0254   30.2509    2.4297 C.ar        1 MOL      -0.0708
     12 C12         6.8108   30.1208    3.1188 C.ar        1 MOL      -0.0722
     13 C13         5.5981   30.2015    2.4139 C.ar        1 MOL      -0.0625
     14 C14         5.5635   30.4408    1.0146 C.ar        1 MOL       0.0075
     15 C15         4.2870   30.4291    0.3581 C.ar        1 MOL      -0.0223
     16 C16         2.9764   33.8601   -0.5296 C.ar        1 MOL       0.0684
     17 C17         1.6076   33.7652   -0.2357 C.ar        1 MOL      -0.0343
     18 C18         1.1436   33.8872    1.0844 C.ar        1 MOL      -0.0571
     19 C19         2.0423   34.0679    2.1606 C.ar        1 MOL      -0.0016
     20 C20         3.4254   34.1727    1.8614 C.ar        1 MOL      -0.0571
     21 C21         3.8841   34.0967    0.5348 C.ar        1 MOL      -0.0343
     22 C22         1.5849   34.1038    3.5021 C.2         1 MOL       0.0553
     23 C23         4.1117   29.7668   -0.8780 C.ar        1 MOL      -0.0571
     24 C24         2.8829   29.7949   -1.5664 C.ar        1 MOL      -0.0632
     25 C25         1.7894   30.4776   -1.0086 C.ar        1 MOL      -0.0635
     26 C26         1.9225   31.1267    0.2335 C.ar        1 MOL      -0.0632
     27 C27         3.1569   31.0823    0.9175 C.ar        1 MOL      -0.0571
     28 O28         0.2821   34.3016    3.8077 O.co2       1 MOL      -0.5638
     29 O29         2.4028   33.8277    4.5447 O.co2       1 MOL      -0.5638
     30 H1          7.7724   30.3675   -1.4093 H           1 MOL       0.2176
     31 H2          2.7938   34.1334   -2.5146 H           1 MOL       0.2187
     32 H3          5.8981   32.2790   -5.1213 H           1 MOL       0.0849
     33 H4          7.3155   30.9713   -3.6221 H           1 MOL       0.0586
     34 H5          8.9254   30.5508    0.5654 H           1 MOL       0.0537
     35 H6          8.9133   30.1888    2.9415 H           1 MOL       0.0591
     36 H7          6.8135   29.9488    4.1300 H           1 MOL       0.0524
     37 H8          4.7322   30.0510    2.9418 H           1 MOL       0.0594
     38 H9          0.9273   33.6465   -0.9926 H           1 MOL       0.0545
     39 H10         0.1412   33.8662    1.2517 H           1 MOL       0.0622
     40 H11         4.1145   34.3075    2.6071 H           1 MOL       0.0622
     41 H12         4.8862   34.2126    0.3533 H           1 MOL       0.0545
     42 H13         4.8902   29.2643   -1.3010 H           1 MOL       0.0606
     43 H14         2.7926   29.3251   -2.4713 H           1 MOL       0.0613
     44 H15         0.8954   30.5021   -1.5058 H           1 MOL       0.0603
     45 H16         1.1172   31.6079    0.6547 H           1 MOL       0.0613
     46 H17         3.2224   31.5415    1.8275 H           1 MOL       0.0606
@<TRIPOS>BOND
     1     1     5  ar
     2     1     6  ar
     3     6     2  ar
     4     2     7  ar
     5     7     3   1
     6     3     9   1
     7     6     4   1
     8     4    16   1
     9     5     8  ar
    10     7     8  ar
    11     9    10  ar
    12     9    14  ar
    13    10    11  ar
    14    11    12  ar
    15    12    13  ar
    16    13    14  ar
    17    14    15   1
    18    15    23  ar
    19    15    27  ar
    20    16    17  ar
    21    16    21  ar
    22    17    18  ar
    23    18    19  ar
    24    19    20  ar
    25    19    22   1
    26    20    21  ar
    27    22    28  ar
    28    22    29  ar
    29    23    24  ar
    30    24    25  ar
    31    25    26  ar
    32    26    27  ar
    33     3    30   1
    34     4    31   1
    35     5    32   1
    36     8    33   1
    37    10    34   1
    38    11    35   1
    39    12    36   1
    40    13    37   1
    41    17    38   1
    42    18    39   1
    43    20    40   1
    44    21    41   1
    45    23    42   1
    46    24    43   1
    47    25    44   1
    48    26    45   1
    49    27    46   1
@<TRIPOS>SUBSTRUCTURE
     1  MOL      5

