@<TRIPOS>MOLECULE
3uo4_ligand_076
    46    49
SMALL
GAST_HUCK
****
This file was generated by PARSER (from files_GN.cpp)

@<TRIPOS>ATOM
      1 N01         3.0895   31.1994   -0.2845 N.ar        1 MOL      -0.2685
      2 N02         4.4948   30.5271    1.4492 N.ar        1 MOL      -0.2339
      3 N03         6.3202   29.1471    1.1672 N.pl3       1 MOL      -0.2537
      4 N04         2.6339   31.9995    1.8466 N.pl3       1 MOL      -0.2427
      5 C05         3.7782   30.4438   -1.1728 C.ar        1 MOL       0.0015
      6 C06         3.4209   31.2550    1.0321 C.ar        1 MOL       0.1962
      7 C07         5.2449   29.7629    0.6228 C.ar        1 MOL       0.1353
      8 C08         4.8626   29.6745   -0.7313 C.ar        1 MOL      -0.0013
      9 C09         7.2347   28.3967    0.4921 C.ar        1 MOL       0.0745
     10 C10         7.1729   26.9966    0.6513 C.ar        1 MOL      -0.0363
     11 C11         8.0642   26.1652   -0.0422 C.ar        1 MOL      -0.0708
     12 C12         9.0477   26.7217   -0.8808 C.ar        1 MOL      -0.0722
     13 C13         9.1374   28.1170   -1.0269 C.ar        1 MOL      -0.0625
     14 C14         8.2361   28.9633   -0.3467 C.ar        1 MOL       0.0075
     15 C15         8.3518   30.3604   -0.5285 C.ar        1 MOL      -0.0223
     16 C16         2.7376   32.1933    3.1985 C.ar        1 MOL       0.0684
     17 C17         1.5539   32.4765    3.9111 C.ar        1 MOL      -0.0343
     18 C18         1.5740   32.6543    5.3072 C.ar        1 MOL      -0.0571
     19 C19         2.7841   32.5602    6.0370 C.ar        1 MOL      -0.0016
     20 C20         3.9726   32.3146    5.3149 C.ar        1 MOL      -0.0571
     21 C21         3.9546   32.1554    3.9164 C.ar        1 MOL      -0.0343
     22 C22         2.8058   32.7219    7.4486 C.2         1 MOL       0.0553
     23 C23         7.6413   30.9980   -1.5685 C.ar        1 MOL      -0.0571
     24 C24         7.6987   32.3950   -1.7181 C.ar        1 MOL      -0.0632
     25 C25         8.5108   33.1543   -0.8594 C.ar        1 MOL      -0.0635
     26 C26         9.2684   32.5229    0.1434 C.ar        1 MOL      -0.0632
     27 C27         9.1815   31.1283    0.3177 C.ar        1 MOL      -0.0571
     28 O28         1.6971   33.0418    8.1493 O.co2       1 MOL      -0.5638
     29 O29         3.9326   32.5576    8.1776 O.co2       1 MOL      -0.5638
     30 H1          6.4348   29.2240    2.1220 H           1 MOL       0.2176
     31 H2          1.8465   32.3767    1.4260 H           1 MOL       0.2187
     32 H3          3.5071   30.4324   -2.1547 H           1 MOL       0.0849
     33 H4          5.3778   29.0807   -1.3849 H           1 MOL       0.0586
     34 H5          6.4636   26.5764    1.2551 H           1 MOL       0.0537
     35 H6          7.9948   25.1535    0.0523 H           1 MOL       0.0591
     36 H7          9.6930   26.1118   -1.3906 H           1 MOL       0.0524
     37 H8          9.8570   28.5071   -1.6460 H           1 MOL       0.0594
     38 H9          0.6595   32.5355    3.4159 H           1 MOL       0.0545
     39 H10         0.6896   32.8424    5.7850 H           1 MOL       0.0622
     40 H11         4.8735   32.2491    5.7934 H           1 MOL       0.0622
     41 H12         4.8445   32.0297    3.4317 H           1 MOL       0.0545
     42 H13         7.0650   30.4574   -2.2173 H           1 MOL       0.0606
     43 H14         7.1551   32.8527   -2.4525 H           1 MOL       0.0613
     44 H15         8.5548   34.1681   -0.9720 H           1 MOL       0.0603
     45 H16         9.8704   33.0762    0.7555 H           1 MOL       0.0613
     46 H17         9.7243   30.6843    1.0626 H           1 MOL       0.0606
@<TRIPOS>BOND
     1     1     5  ar
     2     1     6  ar
     3     6     2  ar
     4     2     7  ar
     5     7     3   1
     6     3     9   1
     7     6     4   1
     8     4    16   1
     9     5     8  ar
    10     7     8  ar
    11     9    10  ar
    12     9    14  ar
    13    10    11  ar
    14    11    12  ar
    15    12    13  ar
    16    13    14  ar
    17    14    15   1
    18    15    23  ar
    19    15    27  ar
    20    16    17  ar
    21    16    21  ar
    22    17    18  ar
    23    18    19  ar
    24    19    20  ar
    25    19    22   1
    26    20    21  ar
    27    22    28  ar
    28    22    29  ar
    29    23    24  ar
    30    24    25  ar
    31    25    26  ar
    32    26    27  ar
    33     3    30   1
    34     4    31   1
    35     5    32   1
    36     8    33   1
    37    10    34   1
    38    11    35   1
    39    12    36   1
    40    13    37   1
    41    17    38   1
    42    18    39   1
    43    20    40   1
    44    21    41   1
    45    23    42   1
    46    24    43   1
    47    25    44   1
    48    26    45   1
    49    27    46   1
@<TRIPOS>SUBSTRUCTURE
     1  MOL      5

