@<TRIPOS>MOLECULE
3uo4_ligand_012
    46    49
SMALL
GAST_HUCK
****
This file was generated by PARSER (from files_GN.cpp)

@<TRIPOS>ATOM
      1 N01         3.2551   30.4603    4.0376 N.ar        1 MOL      -0.2685
      2 N02         5.4824   30.5072    4.7314 N.ar        1 MOL      -0.2339
      3 N03         6.7663   28.4823    4.8363 N.pl3       1 MOL      -0.2537
      4 N04         4.3111   32.5103    4.6610 N.pl3       1 MOL      -0.2427
      5 C05         3.3097   29.1169    3.8701 C.ar        1 MOL       0.0015
      6 C06         4.3297   31.1703    4.4695 C.ar        1 MOL       0.1962
      7 C07         5.6148   29.1600    4.5859 C.ar        1 MOL       0.1353
      8 C08         4.4996   28.4255    4.1372 C.ar        1 MOL      -0.0013
      9 C09         7.9676   29.0104    5.2197 C.ar        1 MOL       0.0745
     10 C10         8.0020   29.9071    6.3181 C.ar        1 MOL      -0.0363
     11 C11         9.2178   30.4082    6.7995 C.ar        1 MOL      -0.0708
     12 C12        10.4169   30.0100    6.1995 C.ar        1 MOL      -0.0722
     13 C13        10.4006   29.1144    5.1160 C.ar        1 MOL      -0.0625
     14 C14         9.1872   28.5662    4.6188 C.ar        1 MOL       0.0075
     15 C15         9.2474   27.6150    3.5364 C.ar        1 MOL      -0.0223
     16 C16         3.2314   33.3061    4.5040 C.ar        1 MOL       0.0684
     17 C17         2.8541   33.7850    3.2323 C.ar        1 MOL      -0.0343
     18 C18         1.7589   34.6640    3.0944 C.ar        1 MOL      -0.0571
     19 C19         1.0000   35.0688    4.2192 C.ar        1 MOL      -0.0016
     20 C20         1.3902   34.5826    5.4902 C.ar        1 MOL      -0.0571
     21 C21         2.5045   33.7307    5.6346 C.ar        1 MOL      -0.0343
     22 C22        -0.1221   35.9261    4.0870 C.2         1 MOL       0.0553
     23 C23         8.3241   27.6385    2.4606 C.ar        1 MOL      -0.0571
     24 C24         8.3806   26.6838    1.4268 C.ar        1 MOL      -0.0632
     25 C25         9.3992   25.7171    1.4137 C.ar        1 MOL      -0.0635
     26 C26        10.3517   25.6993    2.4433 C.ar        1 MOL      -0.0632
     27 C27        10.2612   26.6226    3.5012 C.ar        1 MOL      -0.0571
     28 O28        -1.1166   35.9228    5.0061 O.co2       1 MOL      -0.5638
     29 O29        -0.2988   36.7065    2.9963 O.co2       1 MOL      -0.5638
     30 H1          6.7656   27.5393    4.6043 H           1 MOL       0.2176
     31 H2          5.1124   32.9228    5.0125 H           1 MOL       0.2187
     32 H3          2.4873   28.6050    3.5527 H           1 MOL       0.0849
     33 H4          4.5595   27.4177    3.9925 H           1 MOL       0.0586
     34 H5          7.1411   30.1796    6.7961 H           1 MOL       0.0537
     35 H6          9.2310   31.0514    7.5916 H           1 MOL       0.0591
     36 H7         11.3028   30.3743    6.5516 H           1 MOL       0.0524
     37 H8         11.2947   28.8639    4.6910 H           1 MOL       0.0594
     38 H9          3.3938   33.5123    2.4026 H           1 MOL       0.0545
     39 H10         1.5207   34.9944    2.1543 H           1 MOL       0.0622
     40 H11         0.8783   34.8495    6.3382 H           1 MOL       0.0622
     41 H12         2.7713   33.4041    6.5732 H           1 MOL       0.0545
     42 H13         7.6085   28.3610    2.4165 H           1 MOL       0.0606
     43 H14         7.6942   26.6984    0.6706 H           1 MOL       0.0613
     44 H15         9.4544   25.0335    0.6552 H           1 MOL       0.0603
     45 H16        11.1075   25.0078    2.4268 H           1 MOL       0.0613
     46 H17        10.9495   26.5591    4.2527 H           1 MOL       0.0606
@<TRIPOS>BOND
     1     1     5  ar
     2     1     6  ar
     3     6     2  ar
     4     2     7  ar
     5     7     3   1
     6     3     9   1
     7     6     4   1
     8     4    16   1
     9     5     8  ar
    10     7     8  ar
    11     9    10  ar
    12     9    14  ar
    13    10    11  ar
    14    11    12  ar
    15    12    13  ar
    16    13    14  ar
    17    14    15   1
    18    15    23  ar
    19    15    27  ar
    20    16    17  ar
    21    16    21  ar
    22    17    18  ar
    23    18    19  ar
    24    19    20  ar
    25    19    22   1
    26    20    21  ar
    27    22    28  ar
    28    22    29  ar
    29    23    24  ar
    30    24    25  ar
    31    25    26  ar
    32    26    27  ar
    33     3    30   1
    34     4    31   1
    35     5    32   1
    36     8    33   1
    37    10    34   1
    38    11    35   1
    39    12    36   1
    40    13    37   1
    41    17    38   1
    42    18    39   1
    43    20    40   1
    44    21    41   1
    45    23    42   1
    46    24    43   1
    47    25    44   1
    48    26    45   1
    49    27    46   1
@<TRIPOS>SUBSTRUCTURE
     1  MOL      5

