@<TRIPOS>MOLECULE
3uo4_ligand_092
    46    49
SMALL
GAST_HUCK
****
This file was generated by PARSER (from files_GN.cpp)

@<TRIPOS>ATOM
      1 N01         8.0091   30.5934   -4.6568 N.ar        1 MOL      -0.2685
      2 N02         6.9227   30.4012   -2.5935 N.ar        1 MOL      -0.2339
      3 N03         6.5466   28.2954   -1.5786 N.pl3       1 MOL      -0.2537
      4 N04         7.2151   32.5309   -3.5941 N.pl3       1 MOL      -0.2427
      5 C05         8.1542   29.2450   -4.7346 C.ar        1 MOL       0.0015
      6 C06         7.4041   31.1905   -3.6012 C.ar        1 MOL       0.1962
      7 C07         7.0223   29.0395   -2.6048 C.ar        1 MOL       0.1353
      8 C08         7.6559   28.4231   -3.7048 C.ar        1 MOL      -0.0013
      9 C09         6.1155   28.8003   -0.3901 C.ar        1 MOL       0.0745
     10 C10         6.9036   28.4833    0.7375 C.ar        1 MOL      -0.0363
     11 C11         6.5690   28.9551    2.0159 C.ar        1 MOL      -0.0708
     12 C12         5.4477   29.7815    2.1804 C.ar        1 MOL      -0.0722
     13 C13         4.6454   30.1088    1.0720 C.ar        1 MOL      -0.0625
     14 C14         4.9426   29.5908   -0.2140 C.ar        1 MOL       0.0075
     15 C15         4.0106   29.8242   -1.2544 C.ar        1 MOL      -0.0223
     16 C16         6.4341   33.1389   -2.6602 C.ar        1 MOL       0.0684
     17 C17         5.2489   33.7666   -3.0843 C.ar        1 MOL      -0.0343
     18 C18         4.2864   34.1623   -2.1383 C.ar        1 MOL      -0.0571
     19 C19         4.5305   34.0151   -0.7568 C.ar        1 MOL      -0.0016
     20 C20         5.7616   33.4720   -0.3345 C.ar        1 MOL      -0.0571
     21 C21         6.7110   33.0496   -1.2809 C.ar        1 MOL      -0.0343
     22 C22         3.5611   34.3623    0.2003 C.2         1 MOL       0.0553
     23 C23         4.2037   30.8790   -2.1731 C.ar        1 MOL      -0.0571
     24 C24         3.2504   31.1330   -3.1799 C.ar        1 MOL      -0.0632
     25 C25         2.1003   30.3291   -3.2848 C.ar        1 MOL      -0.0635
     26 C26         1.8928   29.2809   -2.3665 C.ar        1 MOL      -0.0632
     27 C27         2.8353   29.0377   -1.3471 C.ar        1 MOL      -0.0571
     28 O28         3.8992   35.1628    1.2467 O.co2       1 MOL      -0.5638
     29 O29         2.2446   34.1122   -0.0043 O.co2       1 MOL      -0.5638
     30 H1          6.7312   27.3506   -1.6134 H           1 MOL       0.2176
     31 H2          7.4205   33.0147   -4.4134 H           1 MOL       0.2187
     32 H3          8.6269   28.8339   -5.5429 H           1 MOL       0.0849
     33 H4          7.7475   27.4138   -3.7590 H           1 MOL       0.0586
     34 H5          7.7517   27.9077    0.6250 H           1 MOL       0.0537
     35 H6          7.1481   28.7092    2.8189 H           1 MOL       0.0591
     36 H7          5.2032   30.1299    3.1088 H           1 MOL       0.0524
     37 H8          3.8315   30.7055    1.2172 H           1 MOL       0.0594
     38 H9          5.0385   33.8404   -4.0844 H           1 MOL       0.0545
     39 H10         3.3864   34.5177   -2.4797 H           1 MOL       0.0622
     40 H11         5.9565   33.3199    0.6600 H           1 MOL       0.0622
     41 H12         7.5758   32.6183   -0.9540 H           1 MOL       0.0545
     42 H13         5.0448   31.4663   -2.1148 H           1 MOL       0.0606
     43 H14         3.3959   31.9046   -3.8333 H           1 MOL       0.0613
     44 H15         1.4139   30.5082   -4.0213 H           1 MOL       0.0603
     45 H16         1.0577   28.6982   -2.4354 H           1 MOL       0.0613
     46 H17         2.6643   28.2787   -0.6801 H           1 MOL       0.0606
@<TRIPOS>BOND
     1     1     5  ar
     2     1     6  ar
     3     6     2  ar
     4     2     7  ar
     5     7     3   1
     6     3     9   1
     7     6     4   1
     8     4    16   1
     9     5     8  ar
    10     7     8  ar
    11     9    10  ar
    12     9    14  ar
    13    10    11  ar
    14    11    12  ar
    15    12    13  ar
    16    13    14  ar
    17    14    15   1
    18    15    23  ar
    19    15    27  ar
    20    16    17  ar
    21    16    21  ar
    22    17    18  ar
    23    18    19  ar
    24    19    20  ar
    25    19    22   1
    26    20    21  ar
    27    22    28  ar
    28    22    29  ar
    29    23    24  ar
    30    24    25  ar
    31    25    26  ar
    32    26    27  ar
    33     3    30   1
    34     4    31   1
    35     5    32   1
    36     8    33   1
    37    10    34   1
    38    11    35   1
    39    12    36   1
    40    13    37   1
    41    17    38   1
    42    18    39   1
    43    20    40   1
    44    21    41   1
    45    23    42   1
    46    24    43   1
    47    25    44   1
    48    26    45   1
    49    27    46   1
@<TRIPOS>SUBSTRUCTURE
     1  MOL      5

