@<TRIPOS>MOLECULE
3uo4_ligand_021
    46    49
SMALL
GAST_HUCK
****
This file was generated by PARSER (from files_GN.cpp)

@<TRIPOS>ATOM
      1 N01         3.9324   32.3917    6.2960 N.ar        1 MOL      -0.2685
      2 N02         3.0724   32.1342    4.1451 N.ar        1 MOL      -0.2339
      3 N03         3.6771   30.4267    2.7091 N.pl3       1 MOL      -0.2537
      4 N04         2.4092   33.9680    5.5614 N.pl3       1 MOL      -0.2427
      5 C05         4.6859   31.2726    6.1527 C.ar        1 MOL       0.0015
      6 C06         3.1258   32.8468    5.3025 C.ar        1 MOL       0.1962
      7 C07         3.7963   31.0107    3.9217 C.ar        1 MOL       0.1353
      8 C08         4.6489   30.5561    4.9448 C.ar        1 MOL      -0.0013
      9 C09         4.3106   29.2993    2.2628 C.ar        1 MOL       0.0745
     10 C10         4.0725   28.0607    2.8984 C.ar        1 MOL      -0.0363
     11 C11         4.7169   26.8937    2.4560 C.ar        1 MOL      -0.0708
     12 C12         5.6018   26.9525    1.3674 C.ar        1 MOL      -0.0722
     13 C13         5.8379   28.1739    0.7171 C.ar        1 MOL      -0.0625
     14 C14         5.1896   29.3550    1.1465 C.ar        1 MOL       0.0075
     15 C15         5.4697   30.5720    0.4692 C.ar        1 MOL      -0.0223
     16 C16         1.4976   34.6131    4.7741 C.ar        1 MOL       0.0684
     17 C17         1.5888   34.6838    3.3662 C.ar        1 MOL      -0.0343
     18 C18         0.6389   35.3954    2.6179 C.ar        1 MOL      -0.0571
     19 C19        -0.4274   36.0641    3.2562 C.ar        1 MOL      -0.0016
     20 C20        -0.5265   35.9922    4.6625 C.ar        1 MOL      -0.0571
     21 C21         0.4387   35.2942    5.4104 C.ar        1 MOL      -0.0343
     22 C22        -1.3903   36.7767    2.4918 C.2         1 MOL       0.0553
     23 C23         6.7920   31.0733    0.4075 C.ar        1 MOL      -0.0571
     24 C24         7.0648   32.2823   -0.2615 C.ar        1 MOL      -0.0632
     25 C25         6.0201   32.9986   -0.8742 C.ar        1 MOL      -0.0635
     26 C26         4.7032   32.5075   -0.8192 C.ar        1 MOL      -0.0632
     27 C27         4.4294   31.3001   -0.1548 C.ar        1 MOL      -0.0571
     28 O28        -1.1162   37.2063    1.2303 O.co2       1 MOL      -0.5638
     29 O29        -2.6437   37.0116    2.9590 O.co2       1 MOL      -0.5638
     30 H1          3.1421   30.9133    2.0531 H           1 MOL       0.2176
     31 H2          2.5170   34.3304    6.4597 H           1 MOL       0.2187
     32 H3          5.2882   30.9624    6.9261 H           1 MOL       0.0849
     33 H4          5.2538   29.7323    4.8255 H           1 MOL       0.0586
     34 H5          3.4235   28.0035    3.6893 H           1 MOL       0.0537
     35 H6          4.5365   26.0055    2.9299 H           1 MOL       0.0591
     36 H7          6.0773   26.1050    1.0499 H           1 MOL       0.0524
     37 H8          6.4829   28.1865   -0.0754 H           1 MOL       0.0594
     38 H9          2.3609   34.2341    2.8665 H           1 MOL       0.0545
     39 H10         0.7324   35.4076    1.6003 H           1 MOL       0.0622
     40 H11        -1.2840   36.4715    5.1551 H           1 MOL       0.0622
     41 H12         0.3441   35.2703    6.4279 H           1 MOL       0.0545
     42 H13         7.5639   30.5697    0.8552 H           1 MOL       0.0606
     43 H14         8.0240   32.6381   -0.3014 H           1 MOL       0.0613
     44 H15         6.2204   33.8755   -1.3593 H           1 MOL       0.0603
     45 H16         3.9464   33.0256   -1.2647 H           1 MOL       0.0613
     46 H17         3.4700   30.9527   -0.1329 H           1 MOL       0.0606
@<TRIPOS>BOND
     1     1     5  ar
     2     1     6  ar
     3     6     2  ar
     4     2     7  ar
     5     7     3   1
     6     3     9   1
     7     6     4   1
     8     4    16   1
     9     5     8  ar
    10     7     8  ar
    11     9    10  ar
    12     9    14  ar
    13    10    11  ar
    14    11    12  ar
    15    12    13  ar
    16    13    14  ar
    17    14    15   1
    18    15    23  ar
    19    15    27  ar
    20    16    17  ar
    21    16    21  ar
    22    17    18  ar
    23    18    19  ar
    24    19    20  ar
    25    19    22   1
    26    20    21  ar
    27    22    28  ar
    28    22    29  ar
    29    23    24  ar
    30    24    25  ar
    31    25    26  ar
    32    26    27  ar
    33     3    30   1
    34     4    31   1
    35     5    32   1
    36     8    33   1
    37    10    34   1
    38    11    35   1
    39    12    36   1
    40    13    37   1
    41    17    38   1
    42    18    39   1
    43    20    40   1
    44    21    41   1
    45    23    42   1
    46    24    43   1
    47    25    44   1
    48    26    45   1
    49    27    46   1
@<TRIPOS>SUBSTRUCTURE
     1  MOL      5

