@<TRIPOS>MOLECULE
3uo4_ligand_081
    46    49
SMALL
GAST_HUCK
****
This file was generated by PARSER (from files_GN.cpp)

@<TRIPOS>ATOM
      1 N01         6.1174   25.9313    3.6018 N.ar        1 MOL      -0.2685
      2 N02         7.7205   27.2224    4.6996 N.ar        1 MOL      -0.2339
      3 N03         8.8429   28.9847    3.6073 N.pl3       1 MOL      -0.2537
      4 N04         6.6152   25.4787    5.8564 N.pl3       1 MOL      -0.2427
      5 C05         6.2845   26.6458    2.4652 C.ar        1 MOL       0.0015
      6 C06         6.8400   26.1817    4.7249 C.ar        1 MOL       0.1962
      7 C07         7.9370   27.9835    3.5901 C.ar        1 MOL       0.1353
      8 C08         7.2333   27.6872    2.4112 C.ar        1 MOL      -0.0013
      9 C09         9.4803   29.3652    4.7425 C.ar        1 MOL       0.0745
     10 C10        10.8222   28.9455    4.8988 C.ar        1 MOL      -0.0363
     11 C11        11.5105   29.2478    6.0899 C.ar        1 MOL      -0.0708
     12 C12        10.8935   29.9972    7.0959 C.ar        1 MOL      -0.0722
     13 C13         9.5580   30.4109    6.9523 C.ar        1 MOL      -0.0625
     14 C14         8.8297   30.0859    5.7795 C.ar        1 MOL       0.0075
     15 C15         7.4464   30.3918    5.6970 C.ar        1 MOL      -0.0223
     16 C16         7.0469   25.8831    7.0728 C.ar        1 MOL       0.0684
     17 C17         8.2301   25.3798    7.6654 C.ar        1 MOL      -0.0343
     18 C18         8.6941   25.9011    8.8881 C.ar        1 MOL      -0.0571
     19 C19         7.9774   26.9300    9.5630 C.ar        1 MOL      -0.0016
     20 C20         6.8037   27.4416    8.9469 C.ar        1 MOL      -0.0571
     21 C21         6.3644   26.9480    7.7080 C.ar        1 MOL      -0.0343
     22 C22         8.4130   27.4564   10.7963 C.2         1 MOL       0.0553
     23 C23         6.9440   30.9123    4.4752 C.ar        1 MOL      -0.0571
     24 C24         5.5546   31.1303    4.3248 C.ar        1 MOL      -0.0632
     25 C25         4.6787   30.8756    5.3974 C.ar        1 MOL      -0.0635
     26 C26         5.1909   30.3715    6.6119 C.ar        1 MOL      -0.0632
     27 C27         6.5693   30.1145    6.7761 C.ar        1 MOL      -0.0571
     28 O28         7.5638   27.7019   11.8325 O.co2       1 MOL      -0.5638
     29 O29         9.7022   27.8204   11.0040 O.co2       1 MOL      -0.5638
     30 H1          8.9951   29.4846    2.7855 H           1 MOL       0.2176
     31 H2          5.9465   24.7721    5.8319 H           1 MOL       0.2187
     32 H3          5.7395   26.4060    1.6208 H           1 MOL       0.0849
     33 H4          7.3594   28.2402    1.5563 H           1 MOL       0.0586
     34 H5         11.2862   28.3927    4.1691 H           1 MOL       0.0537
     35 H6         12.4749   28.9129    6.2092 H           1 MOL       0.0591
     36 H7         11.4215   30.2285    7.9406 H           1 MOL       0.0524
     37 H8          9.1250   30.9368    7.7012 H           1 MOL       0.0594
     38 H9          8.7709   24.6535    7.1811 H           1 MOL       0.0545
     39 H10         9.5469   25.5041    9.3002 H           1 MOL       0.0622
     40 H11         6.2857   28.2134    9.3766 H           1 MOL       0.0622
     41 H12         5.5178   27.3390    7.2889 H           1 MOL       0.0545
     42 H13         7.5829   31.1305    3.6811 H           1 MOL       0.0606
     43 H14         5.1999   31.4703    3.4314 H           1 MOL       0.0613
     44 H15         3.6736   31.0506    5.2913 H           1 MOL       0.0603
     45 H16         4.5556   30.1920    7.3854 H           1 MOL       0.0613
     46 H17         6.9108   29.7170    7.6835 H           1 MOL       0.0606
@<TRIPOS>BOND
     1     1     5  ar
     2     1     6  ar
     3     6     2  ar
     4     2     7  ar
     5     7     3   1
     6     3     9   1
     7     6     4   1
     8     4    16   1
     9     5     8  ar
    10     7     8  ar
    11     9    10  ar
    12     9    14  ar
    13    10    11  ar
    14    11    12  ar
    15    12    13  ar
    16    13    14  ar
    17    14    15   1
    18    15    23  ar
    19    15    27  ar
    20    16    17  ar
    21    16    21  ar
    22    17    18  ar
    23    18    19  ar
    24    19    20  ar
    25    19    22   1
    26    20    21  ar
    27    22    28  ar
    28    22    29  ar
    29    23    24  ar
    30    24    25  ar
    31    25    26  ar
    32    26    27  ar
    33     3    30   1
    34     4    31   1
    35     5    32   1
    36     8    33   1
    37    10    34   1
    38    11    35   1
    39    12    36   1
    40    13    37   1
    41    17    38   1
    42    18    39   1
    43    20    40   1
    44    21    41   1
    45    23    42   1
    46    24    43   1
    47    25    44   1
    48    26    45   1
    49    27    46   1
@<TRIPOS>SUBSTRUCTURE
     1  MOL      5

