@<TRIPOS>MOLECULE
3uo4_ligand_078
    46    49
SMALL
GAST_HUCK
****
This file was generated by PARSER (from files_GN.cpp)

@<TRIPOS>ATOM
      1 N01         7.8065   29.8716    6.3202 N.ar        1 MOL      -0.2685
      2 N02         7.4705   29.1878    4.1095 N.ar        1 MOL      -0.2339
      3 N03         5.2996   29.0266    3.1841 N.pl3       1 MOL      -0.2537
      4 N04         9.6611   29.2724    5.0391 N.pl3       1 MOL      -0.2427
      5 C05         6.4697   30.0337    6.4913 C.ar        1 MOL       0.0015
      6 C06         8.3260   29.4622    5.1307 C.ar        1 MOL       0.1962
      7 C07         6.1246   29.3237    4.2135 C.ar        1 MOL       0.1353
      8 C08         5.5827   29.7715    5.4333 C.ar        1 MOL      -0.0013
      9 C09         5.6452   28.5172    1.9613 C.ar        1 MOL       0.0745
     10 C10         5.0063   29.1318    0.8632 C.ar        1 MOL      -0.0363
     11 C11         5.2680   28.7119   -0.4515 C.ar        1 MOL      -0.0708
     12 C12         6.1445   27.6369   -0.6774 C.ar        1 MOL      -0.0722
     13 C13         6.7637   27.0010    0.4109 C.ar        1 MOL      -0.0625
     14 C14         6.5404   27.4274    1.7440 C.ar        1 MOL       0.0075
     15 C15         7.2061   26.7164    2.7988 C.ar        1 MOL      -0.0223
     16 C16        10.3691   28.8140    3.9632 C.ar        1 MOL       0.0684
     17 C17        10.1187   29.1946    2.6226 C.ar        1 MOL      -0.0343
     18 C18        10.9159   28.7040    1.5740 C.ar        1 MOL      -0.0571
     19 C19        11.9983   27.8330    1.8436 C.ar        1 MOL      -0.0016
     20 C20        12.2502   27.4552    3.1810 C.ar        1 MOL      -0.0571
     21 C21        11.4448   27.9402    4.2214 C.ar        1 MOL      -0.0343
     22 C22        12.8346   27.3842    0.7918 C.2         1 MOL       0.0553
     23 C23         6.5221   26.3520    3.9852 C.ar        1 MOL      -0.0571
     24 C24         7.1964   25.7238    5.0501 C.ar        1 MOL      -0.0632
     25 C25         8.5700   25.4462    4.9482 C.ar        1 MOL      -0.0635
     26 C26         9.2652   25.7687    3.7668 C.ar        1 MOL      -0.0632
     27 C27         8.5811   26.3777    2.6984 C.ar        1 MOL      -0.0571
     28 O28        12.3483   27.1993   -0.4638 O.co2       1 MOL      -0.5638
     29 O29        14.1327   27.0409    1.0055 O.co2       1 MOL      -0.5638
     30 H1          4.3668   29.2799    3.2963 H           1 MOL       0.2176
     31 H2         10.1585   29.3688    5.8747 H           1 MOL       0.2187
     32 H3          6.1110   30.3309    7.3989 H           1 MOL       0.0849
     33 H4          4.5772   29.8908    5.5590 H           1 MOL       0.0586
     34 H5          4.3589   29.9189    1.0017 H           1 MOL       0.0537
     35 H6          4.8280   29.1884   -1.2397 H           1 MOL       0.0591
     36 H7          6.3256   27.3182   -1.6257 H           1 MOL       0.0524
     37 H8          7.3741   26.2014    0.2147 H           1 MOL       0.0594
     38 H9          9.3786   29.8588    2.4007 H           1 MOL       0.0545
     39 H10        10.7182   29.0089    0.6214 H           1 MOL       0.0622
     40 H11        13.0200   26.8275    3.4055 H           1 MOL       0.0622
     41 H12        11.6515   27.6656    5.1875 H           1 MOL       0.0545
     42 H13         5.5246   26.5539    4.0842 H           1 MOL       0.0606
     43 H14         6.6930   25.4825    5.9051 H           1 MOL       0.0613
     44 H15         9.0660   25.0087    5.7293 H           1 MOL       0.0603
     45 H16        10.2639   25.5666    3.6885 H           1 MOL       0.0613
     46 H17         9.1130   26.6068    1.8539 H           1 MOL       0.0606
@<TRIPOS>BOND
     1     1     5  ar
     2     1     6  ar
     3     6     2  ar
     4     2     7  ar
     5     7     3   1
     6     3     9   1
     7     6     4   1
     8     4    16   1
     9     5     8  ar
    10     7     8  ar
    11     9    10  ar
    12     9    14  ar
    13    10    11  ar
    14    11    12  ar
    15    12    13  ar
    16    13    14  ar
    17    14    15   1
    18    15    23  ar
    19    15    27  ar
    20    16    17  ar
    21    16    21  ar
    22    17    18  ar
    23    18    19  ar
    24    19    20  ar
    25    19    22   1
    26    20    21  ar
    27    22    28  ar
    28    22    29  ar
    29    23    24  ar
    30    24    25  ar
    31    25    26  ar
    32    26    27  ar
    33     3    30   1
    34     4    31   1
    35     5    32   1
    36     8    33   1
    37    10    34   1
    38    11    35   1
    39    12    36   1
    40    13    37   1
    41    17    38   1
    42    18    39   1
    43    20    40   1
    44    21    41   1
    45    23    42   1
    46    24    43   1
    47    25    44   1
    48    26    45   1
    49    27    46   1
@<TRIPOS>SUBSTRUCTURE
     1  MOL      5

