@<TRIPOS>MOLECULE
3uri_ligand_031
   130   133
SMALL
GAST_HUCK
****
This file was generated by PARSER (from files_GN.cpp)

@<TRIPOS>ATOM
      1 N          11.5932   26.1907   28.5357 N.4         1 PRO       0.2461
      2 CA         11.7946   25.5247   27.2329 C.3         1 PRO       0.0670
      3 C          10.5834   25.1562   26.5111 C.2         1 PRO       0.2269
      4 O           9.4917   25.5548   26.8957 O.2         1 PRO      -0.3907
      5 CB         12.6765   24.3139   27.6058 C.3         1 PRO       0.0127
      6 CG         13.6114   24.8613   28.6938 C.3         1 PRO      -0.0053
      7 CD         12.8366   26.0441   29.3125 C.3         1 PRO      -0.0313
      8 N          10.6969   24.4021   25.4199 N.am        1 PRO      -0.2592
      9 CA          9.6614   23.9384   24.5259 C.3         1 PRO       0.1422
     10 C           8.8358   25.0092   23.9629 C.2         1 PRO       0.2060
     11 O           9.0190   26.1676   24.3117 O.2         1 PRO      -0.3942
     12 CB          8.8011   22.7802   25.1266 C.3         1 PRO       0.0427
     13 CG          9.5969   21.7695   25.8563 C.2         1 PRO       0.0561
     14 ND1        10.1268   21.9155   27.0779 N.pl3       1 PRO      -0.2623
     15 CD2         9.9378   20.4867   25.4368 C.2         1 PRO      -0.0276
     16 CE1        10.7743   20.7876   27.4005 C.2         1 PRO       0.0875
     17 NE2        10.6638   19.8993   26.3999 N.2         1 PRO      -0.3437
     18 N           7.9366   24.7326   23.0193 N.am        1 PRO      -0.2636
     19 CA          7.0425   25.6483   22.3456 C.3         1 PRO       0.1312
     20 C           7.7279   26.6068   21.4746 C.2         1 PRO       0.2040
     21 O           8.9525   26.6737   21.4726 O.2         1 PRO      -0.3944
     22 CB          6.0311   26.3289   23.3306 C.3         1 PRO      -0.0101
     23 CG          5.2736   25.3686   24.3081 C.3         1 PRO      -0.0425
     24 CD1         4.4431   26.1767   25.3438 C.3         1 PRO      -0.0625
     25 CD2         4.3616   24.3508   23.5669 C.3         1 PRO      -0.0625
     26 N           7.0214   27.3527   20.6265 N.am        1 PRO      -0.2616
     27 CA          7.5248   28.2123   19.5886 C.3         1 PRO       0.1538
     28 C           7.4681   29.6057   20.0310 C.2         1 PRO       0.2045
     29 O           8.5083   30.2519   20.0746 O.2         1 PRO      -0.3944
     30 CB          6.7170   27.9376   18.2882 C.3         1 PRO       0.0843
     31 OG          7.4496   28.3238   17.1336 O.3         1 PRO      -0.3903
     32 N           6.3113   30.1559   20.3830 N.am        1 PRO      -0.2748
     33 C1          6.0424   31.5097   20.7887 C.3         1 PRO       0.0911
     34 C2          6.5991   31.8871   22.1955 C.3         1 PRO       0.0089
     35 C3          5.8893   31.3105   23.3705 C.ar        1 PRO      -0.0406
     36 C4          6.6157   30.6638   24.3989 C.ar        1 PRO      -0.0603
     37 C5          4.5015   31.5231   23.5655 C.ar        1 PRO      -0.0603
     38 C6          5.9904   30.2698   25.5927 C.ar        1 PRO      -0.0686
     39 C7          3.8692   31.1111   24.7519 C.ar        1 PRO      -0.0686
     40 C8          4.6157   30.4988   25.7742 C.ar        1 PRO      -0.0687
     41 C9          6.4598   32.5763   19.7324 C.3         1 PRO      -0.0062
     42 N2          5.7559   32.3635   18.4453 N.4         1 PRO       0.2479
     43 C10         5.5796   33.5432   17.5553 C.3         1 PRO       0.0676
     44 C11         6.8196   33.8632   16.6577 C.3         1 PRO       0.0169
     45 C12         7.5335   32.7122   15.8941 C.3         1 PRO       0.0007
     46 SD          8.2692   31.4194   16.9286 S.3         1 PRO      -0.1638
     47 C13         9.8194   32.2084   17.4094 C.3         1 PRO      -0.0181
     48 C           4.2945   33.3908   16.8671 C.2         1 PRO       0.2268
     49 O           3.3535   34.0654   17.2731 O.2         1 PRO      -0.3907
     50 N           4.0719   32.4032   16.0009 N.am        1 PRO      -0.2613
     51 CA          2.8123   31.9680   15.4399 C.3         1 PRO       0.1283
     52 C           2.2542   32.8699   14.4342 C.2         1 PRO       0.2032
     53 O           2.2135   34.0698   14.6715 O.2         1 PRO      -0.3944
     54 CB          1.7713   31.6215   16.5381 C.3         1 PRO      -0.0244
     55 N           1.7627   32.4157   13.2827 N.am        1 PRO      -0.2677
     56 CA          1.2380   33.2263   12.2062 C.3         1 PRO       0.1056
     57 C           0.6917   32.3756   11.1196 C.2         1 PRO       0.0621
     58 O           0.9962   31.0643   10.9895 O.co2       1 PRO      -0.5664
     59 CB          2.2291   34.3124   11.6437 C.3         1 PRO       0.0372
     60 CG          3.5410   34.4024   12.3172 C.2         1 PRO       0.0555
     61 ND1         4.4956   33.4670   12.2768 N.pl3       1 PRO      -0.2623
     62 CD2         4.0143   35.4009   13.1628 C.2         1 PRO      -0.0276
     63 CE1         5.5017   33.8491   13.0711 C.2         1 PRO       0.0875
     64 NE2         5.2206   35.0405   13.6187 N.2         1 PRO      -0.3437
     65 OXT        -0.1776   32.9033   10.2306 O.co2       1 PRO      -0.5664
     66 H1         10.8357   25.7242   29.0393 H           1 PRO       0.2035
     67 H2         11.3683   27.1830   28.4152 H           1 PRO       0.2035
     68 H3         12.3708   26.2112   26.5992 H           1 PRO       0.1099
     69 H4         13.2332   23.9339   26.7462 H           1 PRO       0.0347
     70 H5         12.0704   23.5088   28.0274 H           1 PRO       0.0347
     71 H6         14.5422   25.2099   28.2408 H           1 PRO       0.0320
     72 H7         13.8450   24.0964   29.4396 H           1 PRO       0.0320
     73 H8         12.5938   25.8540   30.3613 H           1 PRO       0.0814
     74 H9         13.4208   26.9660   29.2483 H           1 PRO       0.0814
     75 H10        11.6006   24.1319   25.1877 H           1 PRO       0.1886
     76 H11        10.2072   23.5164   23.6772 H           1 PRO       0.0824
     77 H12         8.2698   22.2691   24.3185 H           1 PRO       0.0491
     78 H13         8.0438   23.1818   25.8051 H           1 PRO       0.0491
     79 H14        10.0489   22.7032   27.6365 H           1 PRO       0.2386
     80 H15         9.6822   20.0565   24.5462 H           1 PRO       0.0324
     81 H16        11.2722   20.6270   28.2765 H           1 PRO       0.1149
     82 H17         7.8537   23.7996   22.7543 H           1 PRO       0.1883
     83 H18         6.4555   25.0236   21.6663 H           1 PRO       0.0800
     84 H19         5.2806   26.8786   22.7553 H           1 PRO       0.0315
     85 H20         6.5768   27.0706   23.9183 H           1 PRO       0.0315
     86 H21         6.0098   24.7976   24.8795 H           1 PRO       0.0298
     87 H22         3.9318   25.5035   26.0356 H           1 PRO       0.0232
     88 H23         3.6961   26.7955   24.8421 H           1 PRO       0.0232
     89 H24         5.0981   26.8246   25.9297 H           1 PRO       0.0232
     90 H25         4.9496   23.7111   22.9078 H           1 PRO       0.0232
     91 H26         3.6087   24.8713   22.9709 H           1 PRO       0.0232
     92 H27         3.8511   23.7056   24.2841 H           1 PRO       0.0232
     93 H28         6.0554   27.2810   20.6832 H           1 PRO       0.1884
     94 H29         8.5636   27.9469   19.3564 H           1 PRO       0.0823
     95 H30         5.7686   28.4750   18.2999 H           1 PRO       0.0606
     96 H31         6.5019   26.8703   18.2065 H           1 PRO       0.0606
     97 H32         6.8012   28.7642   16.5456 H           1 PRO       0.2097
     98 H33         5.5364   29.5760   20.3314 H           1 PRO       0.1859
     99 H34         4.9545   31.5727   20.8622 H           1 PRO       0.0632
    100 H35         6.5363   32.9741   22.3143 H           1 PRO       0.0450
    101 H36         7.6640   31.6367   22.2200 H           1 PRO       0.0450
    102 H37         7.6178   30.5137   24.2958 H           1 PRO       0.0557
    103 H38         3.9487   32.0075   22.8537 H           1 PRO       0.0557
    104 H39         6.5389   29.8381   26.3400 H           1 PRO       0.0599
    105 H40         2.8691   31.2797   24.8862 H           1 PRO       0.0599
    106 H41         4.1644   30.2312   26.6496 H           1 PRO       0.0559
    107 H42         7.5394   32.5683   19.5684 H           1 PRO       0.0839
    108 H43         6.1982   33.5589   20.1308 H           1 PRO       0.0839
    109 H44         4.8226   32.0362   18.6835 H           1 PRO       0.2036
    110 H45         6.2173   31.6136   17.9314 H           1 PRO       0.2036
    111 H46         5.4786   34.4298   18.1963 H           1 PRO       0.1099
    112 H47         7.5635   34.3636   17.2801 H           1 PRO       0.0354
    113 H48         6.5113   34.6066   15.9198 H           1 PRO       0.0354
    114 H49         8.3204   33.1381   15.2667 H           1 PRO       0.0380
    115 H50         6.8218   32.2300   15.2270 H           1 PRO       0.0380
    116 H51        10.3770   31.5272   18.0545 H           1 PRO       0.0340
    117 H52         9.6230   33.1270   17.9590 H           1 PRO       0.0340
    118 H53        10.4204   32.4237   16.5255 H           1 PRO       0.0340
    119 H54         4.8362   31.8519   15.7748 H           1 PRO       0.1884
    120 H55         3.0446   31.0202   14.9451 H           1 PRO       0.0797
    121 H56         0.9025   31.1347   16.0912 H           1 PRO       0.0277
    122 H57         1.4341   32.5172   17.0627 H           1 PRO       0.0277
    123 H58         2.2118   30.9383   17.2661 H           1 PRO       0.0277
    124 H59         1.7463   31.4524   13.1652 H           1 PRO       0.1877
    125 H60         0.3608   33.7442   12.6066 H           1 PRO       0.0750
    126 H61         1.7416   35.2907   11.7060 H           1 PRO       0.0484
    127 H62         2.4428   34.1449   10.5843 H           1 PRO       0.0484
    128 H63         4.4500   32.6448   11.7666 H           1 PRO       0.2386
    129 H64         3.5239   36.2643   13.4133 H           1 PRO       0.0324
    130 H65         6.3444   33.3005   13.2416 H           1 PRO       0.1149
@<TRIPOS>BOND
     1     1     2   1
     2     1     7   1
     3     2     3   1
     4     2     5   1
     5     3     4   2
     6     3     8  am
     7     5     6   1
     8     6     7   1
     9     8     9   1
    10     9    10   1
    11     9    12   1
    12    10    11   2
    13    10    18  am
    14    12    13   1
    15    13    14   1
    16    13    15   2
    17    14    16   1
    18    15    17   1
    19    16    17   2
    20    18    19   1
    21    19    20   1
    22    19    22   1
    23    20    21   2
    24    20    26  am
    25    22    23   1
    26    23    24   1
    27    23    25   1
    28    26    27   1
    29    27    28   1
    30    27    30   1
    31    28    29   2
    32    28    32  am
    33    30    31   1
    34    32    33   1
    35    33    34   1
    36    33    41   1
    37    34    35   1
    38    35    36  ar
    39    35    37  ar
    40    36    38  ar
    41    37    39  ar
    42    38    40  ar
    43    39    40  ar
    44    41    42   1
    45    42    43   1
    46    43    44   1
    47    43    48   1
    48    44    45   1
    49    45    46   1
    50    46    47   1
    51    48    49   2
    52    48    50  am
    53    50    51   1
    54    51    52   1
    55    51    54   1
    56    52    53   2
    57    52    55  am
    58    55    56   1
    59    56    57   1
    60    56    59   1
    61    57    58  ar
    62    57    65  ar
    63    59    60   1
    64    60    61   1
    65    60    62   2
    66    61    63   1
    67    62    64   1
    68    63    64   2
    69     1    66   1
    70     1    67   1
    71     2    68   1
    72     5    69   1
    73     5    70   1
    74     6    71   1
    75     6    72   1
    76     7    73   1
    77     7    74   1
    78     8    75   1
    79     9    76   1
    80    12    77   1
    81    12    78   1
    82    14    79   1
    83    15    80   1
    84    16    81   1
    85    18    82   1
    86    19    83   1
    87    22    84   1
    88    22    85   1
    89    23    86   1
    90    24    87   1
    91    24    88   1
    92    24    89   1
    93    25    90   1
    94    25    91   1
    95    25    92   1
    96    26    93   1
    97    27    94   1
    98    30    95   1
    99    30    96   1
   100    31    97   1
   101    32    98   1
   102    33    99   1
   103    34   100   1
   104    34   101   1
   105    36   102   1
   106    37   103   1
   107    38   104   1
   108    39   105   1
   109    40   106   1
   110    41   107   1
   111    41   108   1
   112    42   109   1
   113    42   110   1
   114    43   111   1
   115    44   112   1
   116    44   113   1
   117    45   114   1
   118    45   115   1
   119    47   116   1
   120    47   117   1
   121    47   118   1
   122    50   119   1
   123    51   120   1
   124    54   121   1
   125    54   122   1
   126    54   123   1
   127    55   124   1
   128    56   125   1
   129    59   126   1
   130    59   127   1
   131    61   128   1
   132    62   129   1
   133    63   130   1
@<TRIPOS>SUBSTRUCTURE
     1  PRO      2

