@<TRIPOS>MOLECULE
3uri_ligand_034
   130   133
SMALL
GAST_HUCK
****
This file was generated by PARSER (from files_GN.cpp)

@<TRIPOS>ATOM
      1 N          -7.3423   25.7749   17.5086 N.4         1 PRO       0.2461
      2 CA         -6.6763   25.0335   18.5974 C.3         1 PRO       0.0670
      3 C          -5.2897   25.3969   18.8287 C.2         1 PRO       0.2269
      4 O          -4.6350   25.8280   17.8854 O.2         1 PRO      -0.3907
      5 CB         -6.8342   23.5710   18.1463 C.3         1 PRO       0.0127
      6 CG         -8.2395   23.5293   17.5275 C.3         1 PRO      -0.0053
      7 CD         -8.4828   24.9710   17.0350 C.3         1 PRO      -0.0313
      8 N          -4.7542   25.1828   20.0305 N.am        1 PRO      -0.2592
      9 CA         -3.4494   25.4926   20.5656 C.3         1 PRO       0.1422
     10 C          -2.6014   26.3386   19.7156 C.2         1 PRO       0.2060
     11 O          -1.8696   25.8355   18.8657 O.2         1 PRO      -0.3942
     12 CB         -2.7550   24.1669   20.9969 C.3         1 PRO       0.0427
     13 CG         -1.4658   24.3715   21.6932 C.2         1 PRO       0.0561
     14 ND1        -0.2499   24.0846   21.2072 N.pl3       1 PRO      -0.2623
     15 CD2        -1.2574   24.9360   22.9494 C.2         1 PRO      -0.0276
     16 CE1         0.6694   24.4641   22.1061 C.2         1 PRO       0.0875
     17 NE2         0.0629   24.9861   23.1866 N.2         1 PRO      -0.3437
     18 N          -2.7465   27.6574   19.7748 N.am        1 PRO      -0.2636
     19 CA         -2.2004   28.6123   18.8565 C.3         1 PRO       0.1312
     20 C          -0.7410   28.5535   18.8771 C.2         1 PRO       0.2040
     21 O          -0.1291   29.0069   19.8378 O.2         1 PRO      -0.3944
     22 CB         -2.7390   30.0489   19.1454 C.3         1 PRO      -0.0101
     23 CG         -4.2216   30.3565   18.7346 C.3         1 PRO      -0.0425
     24 CD1        -4.4174   30.4221   17.1908 C.3         1 PRO      -0.0625
     25 CD2        -5.2728   29.4097   19.3818 C.3         1 PRO      -0.0625
     26 N          -0.1094   27.9342   17.8822 N.am        1 PRO      -0.2616
     27 CA          1.3053   27.7653   17.7081 C.3         1 PRO       0.1538
     28 C           1.7752   28.6104   16.6075 C.2         1 PRO       0.2045
     29 O           2.4401   28.1425   15.6905 O.2         1 PRO      -0.3944
     30 CB          1.5862   26.2410   17.5549 C.3         1 PRO       0.0843
     31 OG          0.9754   25.6678   16.3968 O.3         1 PRO      -0.3903
     32 N           1.5480   29.9206   16.6740 N.am        1 PRO      -0.2748
     33 C1          2.0832   30.9538   15.8211 C.3         1 PRO       0.0911
     34 C2          1.4186   32.3347   16.1802 C.3         1 PRO       0.0089
     35 C3          0.3430   32.7338   15.2284 C.ar        1 PRO      -0.0406
     36 C4         -1.0248   32.6735   15.5858 C.ar        1 PRO      -0.0603
     37 C5          0.6894   33.2176   13.9415 C.ar        1 PRO      -0.0603
     38 C6         -2.0210   33.0790   14.6806 C.ar        1 PRO      -0.0686
     39 C7         -0.3081   33.6263   13.0371 C.ar        1 PRO      -0.0686
     40 C8         -1.6620   33.5599   13.4070 C.ar        1 PRO      -0.0687
     41 C9          3.6409   31.0191   15.9072 C.3         1 PRO      -0.0062
     42 N2          4.0873   30.9789   17.3147 N.4         1 PRO       0.2479
     43 C10         5.4728   31.4293   17.6324 C.3         1 PRO       0.0676
     44 C11         5.5374   33.0008   17.6438 C.3         1 PRO       0.0169
     45 C12         6.6085   33.6423   16.7248 C.3         1 PRO       0.0007
     46 SD          8.2852   33.6140   17.4160 S.3         1 PRO      -0.1638
     47 C13         9.0101   32.2641   16.4587 C.3         1 PRO      -0.0181
     48 C           5.9029   30.8374   18.9027 C.2         1 PRO       0.2268
     49 O           5.1393   30.1162   19.5366 O.2         1 PRO      -0.3907
     50 N           7.1198   31.0800   19.3820 N.am        1 PRO      -0.2613
     51 CA          7.6317   30.6395   20.6523 C.3         1 PRO       0.1283
     52 C           6.8606   31.2427   21.7393 C.2         1 PRO       0.2032
     53 O           6.9816   32.4409   21.9593 O.2         1 PRO      -0.3944
     54 CB          9.1423   30.9595   20.7617 C.3         1 PRO      -0.0244
     55 N           5.9082   30.5301   22.3335 N.am        1 PRO      -0.2677
     56 CA          4.8813   31.0266   23.2026 C.3         1 PRO       0.1056
     57 C           4.2012   29.8622   23.8126 C.2         1 PRO       0.0621
     58 O           4.1675   29.7042   25.1552 O.co2       1 PRO      -0.5664
     59 CB          3.8656   31.9320   22.4384 C.3         1 PRO       0.0372
     60 CG          2.9045   32.6111   23.3273 C.2         1 PRO       0.0555
     61 ND1         3.1305   33.7397   24.0119 N.pl3       1 PRO      -0.2623
     62 CD2         1.6005   32.2261   23.6279 C.2         1 PRO      -0.0276
     63 CE1         2.0265   34.0459   24.7037 C.2         1 PRO       0.0875
     64 NE2         1.0763   33.1209   24.4777 N.2         1 PRO      -0.3437
     65 OXT         3.5603   28.9526   23.0445 O.co2       1 PRO      -0.5664
     66 H1         -6.6861   25.8838   16.7332 H           1 PRO       0.2035
     67 H2         -7.6518   26.6964   17.8289 H           1 PRO       0.2035
     68 H3         -7.2571   25.2007   19.5095 H           1 PRO       0.1099
     69 H4         -6.7263   22.8661   18.9729 H           1 PRO       0.0347
     70 H5         -6.0972   23.3280   17.3784 H           1 PRO       0.0347
     71 H6         -8.9796   23.2615   18.2872 H           1 PRO       0.0320
     72 H7         -8.2958   22.8066   16.7084 H           1 PRO       0.0320
     73 H8         -8.5269   25.0090   15.9441 H           1 PRO       0.0814
     74 H9         -9.4158   25.3710   17.4399 H           1 PRO       0.0814
     75 H10        -5.3536   24.7608   20.6669 H           1 PRO       0.1886
     76 H11        -3.6473   26.0509   21.4888 H           1 PRO       0.0824
     77 H12        -2.5897   23.5428   20.1176 H           1 PRO       0.0491
     78 H13        -3.4160   23.6081   21.6694 H           1 PRO       0.0491
     79 H14        -0.0633   23.6908   20.3394 H           1 PRO       0.2386
     80 H15        -1.9820   25.2719   23.5870 H           1 PRO       0.0324
     81 H16         1.6803   24.3769   21.9875 H           1 PRO       0.1149
     82 H17        -3.3453   28.0103   20.4530 H           1 PRO       0.1883
     83 H18        -2.5552   28.3430   17.8549 H           1 PRO       0.0800
     84 H19        -2.1058   30.7798   18.6289 H           1 PRO       0.0315
     85 H20        -2.6344   30.2530   20.2185 H           1 PRO       0.0315
     86 H21        -4.4417   31.3618   19.1142 H           1 PRO       0.0298
     87 H22        -5.4274   30.7691   16.9547 H           1 PRO       0.0232
     88 H23        -4.2719   29.4424   16.7324 H           1 PRO       0.0232
     89 H24        -3.7053   31.1271   16.7503 H           1 PRO       0.0232
     90 H25        -5.1170   29.3520   20.4625 H           1 PRO       0.0232
     91 H26        -5.2003   28.4066   18.9587 H           1 PRO       0.0232
     92 H27        -6.2832   29.7817   19.2034 H           1 PRO       0.0232
     93 H28        -0.6663   27.5462   17.1923 H           1 PRO       0.1884
     94 H29         1.8488   28.0973   18.5981 H           1 PRO       0.0823
     95 H30         1.2239   25.7070   18.4373 H           1 PRO       0.0606
     96 H31         2.6619   26.0721   17.4870 H           1 PRO       0.0606
     97 H32         0.0079   25.7148   16.5586 H           1 PRO       0.2097
     98 H33         1.0009   30.2188   17.4187 H           1 PRO       0.1859
     99 H34         1.8370   30.6934   14.7872 H           1 PRO       0.0632
    100 H35         2.1572   33.1419   16.1860 H           1 PRO       0.0450
    101 H36         1.0281   32.3072   17.2040 H           1 PRO       0.0450
    102 H37        -1.3082   32.3359   16.5104 H           1 PRO       0.0557
    103 H38         1.6709   33.2782   13.6593 H           1 PRO       0.0557
    104 H39        -3.0049   33.0326   14.9486 H           1 PRO       0.0599
    105 H40        -0.0475   33.9769   12.1143 H           1 PRO       0.0599
    106 H41        -2.3839   33.8610   12.7508 H           1 PRO       0.0559
    107 H42         4.0018   31.9155   15.3939 H           1 PRO       0.0839
    108 H43         4.0690   30.1575   15.3904 H           1 PRO       0.0839
    109 H44         3.9904   30.0062   17.6157 H           1 PRO       0.2036
    110 H45         3.4522   31.5390   17.8877 H           1 PRO       0.2036
    111 H46         6.1327   31.0264   16.8613 H           1 PRO       0.1099
    112 H47         5.6735   33.3849   18.6634 H           1 PRO       0.0354
    113 H48         4.5742   33.4046   17.3158 H           1 PRO       0.0354
    114 H49         6.3585   34.6985   16.6013 H           1 PRO       0.0380
    115 H50         6.5799   33.1927   15.7291 H           1 PRO       0.0380
    116 H51        10.0583   32.1651   16.7355 H           1 PRO       0.0340
    117 H52         8.9479   32.4808   15.3931 H           1 PRO       0.0340
    118 H53         8.5019   31.3270   16.6706 H           1 PRO       0.0340
    119 H54         7.7121   31.6117   18.8334 H           1 PRO       0.1884
    120 H55         7.5441   29.5461   20.6874 H           1 PRO       0.0797
    121 H56         9.5312   30.6230   21.7247 H           1 PRO       0.0277
    122 H57         9.3279   32.0318   20.6649 H           1 PRO       0.0277
    123 H58         9.6955   30.4432   19.9718 H           1 PRO       0.0277
    124 H59         5.8630   29.5883   22.0999 H           1 PRO       0.1877
    125 H60         5.3570   31.6071   23.9982 H           1 PRO       0.0750
    126 H61         3.3219   31.3361   21.6988 H           1 PRO       0.0484
    127 H62         4.3996   32.7087   21.8879 H           1 PRO       0.0484
    128 H63         3.9535   34.2547   23.9972 H           1 PRO       0.2386
    129 H64         1.1189   31.4006   23.2670 H           1 PRO       0.0324
    130 H65         1.9198   34.8594   25.3102 H           1 PRO       0.1149
@<TRIPOS>BOND
     1     1     2   1
     2     1     7   1
     3     2     3   1
     4     2     5   1
     5     3     4   2
     6     3     8  am
     7     5     6   1
     8     6     7   1
     9     8     9   1
    10     9    10   1
    11     9    12   1
    12    10    11   2
    13    10    18  am
    14    12    13   1
    15    13    14   1
    16    13    15   2
    17    14    16   1
    18    15    17   1
    19    16    17   2
    20    18    19   1
    21    19    20   1
    22    19    22   1
    23    20    21   2
    24    20    26  am
    25    22    23   1
    26    23    24   1
    27    23    25   1
    28    26    27   1
    29    27    28   1
    30    27    30   1
    31    28    29   2
    32    28    32  am
    33    30    31   1
    34    32    33   1
    35    33    34   1
    36    33    41   1
    37    34    35   1
    38    35    36  ar
    39    35    37  ar
    40    36    38  ar
    41    37    39  ar
    42    38    40  ar
    43    39    40  ar
    44    41    42   1
    45    42    43   1
    46    43    44   1
    47    43    48   1
    48    44    45   1
    49    45    46   1
    50    46    47   1
    51    48    49   2
    52    48    50  am
    53    50    51   1
    54    51    52   1
    55    51    54   1
    56    52    53   2
    57    52    55  am
    58    55    56   1
    59    56    57   1
    60    56    59   1
    61    57    58  ar
    62    57    65  ar
    63    59    60   1
    64    60    61   1
    65    60    62   2
    66    61    63   1
    67    62    64   1
    68    63    64   2
    69     1    66   1
    70     1    67   1
    71     2    68   1
    72     5    69   1
    73     5    70   1
    74     6    71   1
    75     6    72   1
    76     7    73   1
    77     7    74   1
    78     8    75   1
    79     9    76   1
    80    12    77   1
    81    12    78   1
    82    14    79   1
    83    15    80   1
    84    16    81   1
    85    18    82   1
    86    19    83   1
    87    22    84   1
    88    22    85   1
    89    23    86   1
    90    24    87   1
    91    24    88   1
    92    24    89   1
    93    25    90   1
    94    25    91   1
    95    25    92   1
    96    26    93   1
    97    27    94   1
    98    30    95   1
    99    30    96   1
   100    31    97   1
   101    32    98   1
   102    33    99   1
   103    34   100   1
   104    34   101   1
   105    36   102   1
   106    37   103   1
   107    38   104   1
   108    39   105   1
   109    40   106   1
   110    41   107   1
   111    41   108   1
   112    42   109   1
   113    42   110   1
   114    43   111   1
   115    44   112   1
   116    44   113   1
   117    45   114   1
   118    45   115   1
   119    47   116   1
   120    47   117   1
   121    47   118   1
   122    50   119   1
   123    51   120   1
   124    54   121   1
   125    54   122   1
   126    54   123   1
   127    55   124   1
   128    56   125   1
   129    59   126   1
   130    59   127   1
   131    61   128   1
   132    62   129   1
   133    63   130   1
@<TRIPOS>SUBSTRUCTURE
     1  PRO      2

