@<TRIPOS>MOLECULE
3uri_ligand_006
   130   133
SMALL
GAST_HUCK
****
This file was generated by PARSER (from files_GN.cpp)

@<TRIPOS>ATOM
      1 N           2.6693   29.6978   19.8318 N.4         1 PRO       0.2461
      2 CA          1.7703   29.2108   18.7709 C.3         1 PRO       0.0670
      3 C           2.1621   29.6769   17.4490 C.2         1 PRO       0.2269
      4 O           2.2256   28.8674   16.5297 O.2         1 PRO      -0.3907
      5 CB          0.3734   29.6926   19.2162 C.3         1 PRO       0.0127
      6 CG          0.4257   29.5678   20.7471 C.3         1 PRO      -0.0053
      7 CD          1.9215   29.7096   21.1002 C.3         1 PRO      -0.0313
      8 N           2.4105   30.9673   17.2553 N.am        1 PRO      -0.2592
      9 CA          2.7639   31.6174   16.0258 C.3         1 PRO       0.1422
     10 C           3.8163   32.5846   16.3194 C.2         1 PRO       0.2060
     11 O           3.5054   33.6528   16.8385 O.2         1 PRO      -0.3942
     12 CB          1.5107   32.3087   15.4036 C.3         1 PRO       0.0427
     13 CG          0.3685   31.3970   15.1838 C.2         1 PRO       0.0561
     14 ND1         0.3246   30.3682   14.3268 N.pl3       1 PRO      -0.2623
     15 CD2        -0.8777   31.4399   15.8023 C.2         1 PRO      -0.0276
     16 CE1        -0.8855   29.7987   14.4053 C.2         1 PRO       0.0875
     17 NE2        -1.6356   30.4486   15.3111 N.2         1 PRO      -0.3437
     18 N           5.0846   32.3204   16.0192 N.am        1 PRO      -0.2636
     19 CA          6.1646   33.2736   16.0196 C.3         1 PRO       0.1312
     20 C           6.1094   34.1597   14.8534 C.2         1 PRO       0.2040
     21 O           6.8941   35.0983   14.8075 O.2         1 PRO      -0.3944
     22 CB          7.5427   32.5518   16.1493 C.3         1 PRO      -0.0101
     23 CG          7.8697   31.9953   17.5832 C.3         1 PRO      -0.0425
     24 CD1         7.8275   30.4423   17.6452 C.3         1 PRO      -0.0625
     25 CD2         9.2360   32.5187   18.1111 C.3         1 PRO      -0.0625
     26 N           5.2204   33.9988   13.8776 N.am        1 PRO      -0.2616
     27 CA          4.9517   34.9075   12.7911 C.3         1 PRO       0.1538
     28 C           4.1431   36.0630   13.1833 C.2         1 PRO       0.2045
     29 O           3.6018   36.0697   14.2825 O.2         1 PRO      -0.3944
     30 CB          4.2404   34.1057   11.6697 C.3         1 PRO       0.0843
     31 OG          2.8727   33.8702   12.0004 O.3         1 PRO      -0.3903
     32 N           3.9582   37.0437   12.3054 N.am        1 PRO      -0.2748
     33 C1          3.1733   38.2482   12.4014 C.3         1 PRO       0.0911
     34 C2          1.8817   38.2222   13.2846 C.3         1 PRO       0.0089
     35 C3          0.7644   37.3093   12.8837 C.ar        1 PRO      -0.0406
     36 C4         -0.2701   37.0664   13.8207 C.ar        1 PRO      -0.0603
     37 C5          0.6432   36.7162   11.6009 C.ar        1 PRO      -0.0603
     38 C6         -1.3744   36.2553   13.4948 C.ar        1 PRO      -0.0686
     39 C7         -0.4584   35.9049   11.2721 C.ar        1 PRO      -0.0686
     40 C8         -1.4682   35.6728   12.2206 C.ar        1 PRO      -0.0687
     41 C9          4.1285   39.4441   12.7057 C.3         1 PRO      -0.0062
     42 N2          4.7254   40.0041   11.4564 N.4         1 PRO       0.2479
     43 C10         4.0681   41.1604   10.7676 C.3         1 PRO       0.0676
     44 C11         2.5016   41.1416   10.8052 C.3         1 PRO       0.0169
     45 C12         1.8256   40.2933    9.6912 C.3         1 PRO       0.0007
     46 SD          0.1132   39.8300   10.0730 S.3         1 PRO      -0.1638
     47 C13        -0.6500   41.4668   10.0373 C.3         1 PRO      -0.0181
     48 C           4.6004   42.4535   11.1965 C.2         1 PRO       0.2268
     49 O           5.2988   42.5370   12.2016 O.2         1 PRO      -0.3907
     50 N           4.3396   43.5364   10.4683 N.am        1 PRO      -0.2613
     51 CA          4.7184   44.8856   10.7803 C.3         1 PRO       0.1283
     52 C           3.9265   45.3749   11.9049 C.2         1 PRO       0.2032
     53 O           3.0032   46.1516   11.6914 O.2         1 PRO      -0.3944
     54 CB          4.5689   45.7839    9.5241 C.3         1 PRO      -0.0244
     55 N           4.1547   44.9011   13.1232 N.am        1 PRO      -0.2677
     56 CA          3.4919   45.2220   14.3556 C.3         1 PRO       0.1056
     57 C           2.3735   44.2904   14.6402 C.2         1 PRO       0.0621
     58 O           1.2516   44.2968   13.8859 O.co2       1 PRO      -0.5664
     59 CB          3.0557   46.7140   14.4768 C.3         1 PRO       0.0372
     60 CG          4.0844   47.6698   14.0129 C.2         1 PRO       0.0555
     61 ND1         5.3764   47.6813   14.3708 N.pl3       1 PRO      -0.2623
     62 CD2         3.9137   48.7344   13.1328 C.2         1 PRO      -0.0276
     63 CE1         5.9804   48.7014   13.7456 C.2         1 PRO       0.0875
     64 NE2         5.0914   49.3589   12.9822 N.2         1 PRO      -0.3437
     65 OXT         2.3752   43.5313   15.7612 O.co2       1 PRO      -0.5664
     66 H1          2.9582   30.6549   19.6193 H           1 PRO       0.2035
     67 H2          3.4958   29.1008   19.9060 H           1 PRO       0.2035
     68 H3          1.7839   28.1139   18.8017 H           1 PRO       0.1099
     69 H4         -0.4219   29.0771   18.7870 H           1 PRO       0.0347
     70 H5          0.2039   30.7387   18.9424 H           1 PRO       0.0347
     71 H6          0.0572   28.5845   21.0554 H           1 PRO       0.0320
     72 H7         -0.1797   30.3403   21.2299 H           1 PRO       0.0320
     73 H8          2.1125   30.6511   21.6206 H           1 PRO       0.0814
     74 H9          2.2508   28.8814   21.7329 H           1 PRO       0.0814
     75 H10         2.3629   31.5411   18.0368 H           1 PRO       0.1886
     76 H11         3.1352   30.8920   15.2924 H           1 PRO       0.0824
     77 H12         1.7795   32.7501   14.4400 H           1 PRO       0.0491
     78 H13         1.1838   33.1221   16.0579 H           1 PRO       0.0491
     79 H14         1.0438   30.0879   13.7416 H           1 PRO       0.2386
     80 H15        -1.1739   32.1130   16.5107 H           1 PRO       0.0324
     81 H16        -1.1943   28.9953   13.8560 H           1 PRO       0.1149
     82 H17         5.2817   31.4413   15.6559 H           1 PRO       0.1883
     83 H18         6.0707   33.9175   16.9007 H           1 PRO       0.0800
     84 H19         8.3160   33.2765   15.8752 H           1 PRO       0.0315
     85 H20         7.5975   31.7461   15.4099 H           1 PRO       0.0315
     86 H21         7.1152   32.3622   18.2864 H           1 PRO       0.0298
     87 H22         8.0439   30.0943   18.6575 H           1 PRO       0.0232
     88 H23         8.5653   30.0105   16.9645 H           1 PRO       0.0232
     89 H24         6.8391   30.0732   17.3711 H           1 PRO       0.0232
     90 H25         9.2103   33.6069   18.1996 H           1 PRO       0.0232
     91 H26        10.0435   32.2438   17.4304 H           1 PRO       0.0232
     92 H27         9.4531   32.1073   19.0986 H           1 PRO       0.0232
     93 H28         4.6561   33.2110   13.9272 H           1 PRO       0.1884
     94 H29         5.9080   35.2614   12.3883 H           1 PRO       0.0823
     95 H30         4.7479   33.1475   11.5311 H           1 PRO       0.0606
     96 H31         4.2785   34.6413   10.7182 H           1 PRO       0.0606
     97 H32         2.6330   33.0682   11.4959 H           1 PRO       0.2097
     98 H33         4.4461   36.9460   11.4709 H           1 PRO       0.1859
     99 H34         2.7949   38.4033   11.3938 H           1 PRO       0.0632
    100 H35         1.4608   39.2305   13.2848 H           1 PRO       0.0450
    101 H36         2.1720   38.0116   14.3159 H           1 PRO       0.0450
    102 H37        -0.2250   37.4761   14.7564 H           1 PRO       0.0557
    103 H38         1.3458   36.8724   10.8784 H           1 PRO       0.0557
    104 H39        -2.1093   36.0897   14.1855 H           1 PRO       0.0599
    105 H40        -0.5318   35.4928   10.3396 H           1 PRO       0.0599
    106 H41        -2.2720   35.0885   11.9799 H           1 PRO       0.0559
    107 H42         4.9459   39.1055   13.3462 H           1 PRO       0.0839
    108 H43         3.6161   40.2258   13.2687 H           1 PRO       0.0839
    109 H44         4.8087   39.2435   10.7772 H           1 PRO       0.2036
    110 H45         5.6776   40.3007   11.6817 H           1 PRO       0.2036
    111 H46         4.3615   41.0557    9.7214 H           1 PRO       0.1099
    112 H47         2.1145   42.1593   10.6957 H           1 PRO       0.0354
    113 H48         2.1764   40.7961   11.7862 H           1 PRO       0.0354
    114 H49         2.3799   39.3695    9.5280 H           1 PRO       0.0380
    115 H50         1.8376   40.8418    8.7468 H           1 PRO       0.0380
    116 H51        -1.7319   41.3517   10.0894 H           1 PRO       0.0340
    117 H52        -0.3918   41.9854    9.1139 H           1 PRO       0.0340
    118 H53        -0.3190   42.0535   10.8942 H           1 PRO       0.0340
    119 H54         3.8298   43.4020    9.6517 H           1 PRO       0.1884
    120 H55         5.7852   44.8935   11.0332 H           1 PRO       0.0797
    121 H56         4.8648   46.8097    9.7559 H           1 PRO       0.0277
    122 H57         3.5356   45.7871    9.1675 H           1 PRO       0.0277
    123 H58         5.2089   45.4175    8.7186 H           1 PRO       0.0277
    124 H59         4.8710   44.2547   13.1969 H           1 PRO       0.1877
    125 H60         4.2435   45.0540   15.1322 H           1 PRO       0.0750
    126 H61         2.8415   46.9374   15.5251 H           1 PRO       0.0484
    127 H62         2.1338   46.8790   13.9122 H           1 PRO       0.0484
    128 H63         5.8047   47.0523   14.9721 H           1 PRO       0.2386
    129 H64         3.0396   49.0091   12.6801 H           1 PRO       0.0324
    130 H65         6.9672   48.9434   13.8357 H           1 PRO       0.1149
@<TRIPOS>BOND
     1     1     2   1
     2     1     7   1
     3     2     3   1
     4     2     5   1
     5     3     4   2
     6     3     8  am
     7     5     6   1
     8     6     7   1
     9     8     9   1
    10     9    10   1
    11     9    12   1
    12    10    11   2
    13    10    18  am
    14    12    13   1
    15    13    14   1
    16    13    15   2
    17    14    16   1
    18    15    17   1
    19    16    17   2
    20    18    19   1
    21    19    20   1
    22    19    22   1
    23    20    21   2
    24    20    26  am
    25    22    23   1
    26    23    24   1
    27    23    25   1
    28    26    27   1
    29    27    28   1
    30    27    30   1
    31    28    29   2
    32    28    32  am
    33    30    31   1
    34    32    33   1
    35    33    34   1
    36    33    41   1
    37    34    35   1
    38    35    36  ar
    39    35    37  ar
    40    36    38  ar
    41    37    39  ar
    42    38    40  ar
    43    39    40  ar
    44    41    42   1
    45    42    43   1
    46    43    44   1
    47    43    48   1
    48    44    45   1
    49    45    46   1
    50    46    47   1
    51    48    49   2
    52    48    50  am
    53    50    51   1
    54    51    52   1
    55    51    54   1
    56    52    53   2
    57    52    55  am
    58    55    56   1
    59    56    57   1
    60    56    59   1
    61    57    58  ar
    62    57    65  ar
    63    59    60   1
    64    60    61   1
    65    60    62   2
    66    61    63   1
    67    62    64   1
    68    63    64   2
    69     1    66   1
    70     1    67   1
    71     2    68   1
    72     5    69   1
    73     5    70   1
    74     6    71   1
    75     6    72   1
    76     7    73   1
    77     7    74   1
    78     8    75   1
    79     9    76   1
    80    12    77   1
    81    12    78   1
    82    14    79   1
    83    15    80   1
    84    16    81   1
    85    18    82   1
    86    19    83   1
    87    22    84   1
    88    22    85   1
    89    23    86   1
    90    24    87   1
    91    24    88   1
    92    24    89   1
    93    25    90   1
    94    25    91   1
    95    25    92   1
    96    26    93   1
    97    27    94   1
    98    30    95   1
    99    30    96   1
   100    31    97   1
   101    32    98   1
   102    33    99   1
   103    34   100   1
   104    34   101   1
   105    36   102   1
   106    37   103   1
   107    38   104   1
   108    39   105   1
   109    40   106   1
   110    41   107   1
   111    41   108   1
   112    42   109   1
   113    42   110   1
   114    43   111   1
   115    44   112   1
   116    44   113   1
   117    45   114   1
   118    45   115   1
   119    47   116   1
   120    47   117   1
   121    47   118   1
   122    50   119   1
   123    51   120   1
   124    54   121   1
   125    54   122   1
   126    54   123   1
   127    55   124   1
   128    56   125   1
   129    59   126   1
   130    59   127   1
   131    61   128   1
   132    62   129   1
   133    63   130   1
@<TRIPOS>SUBSTRUCTURE
     1  PRO      2

