@<TRIPOS>MOLECULE
3uri_ligand_029
   130   133
SMALL
GAST_HUCK
****
This file was generated by PARSER (from files_GN.cpp)

@<TRIPOS>ATOM
      1 N           3.5895   25.9771   21.2472 N.4         1 PRO       0.2461
      2 CA          3.5579   25.9098   19.7738 C.3         1 PRO       0.0670
      3 C           3.4321   27.2171   19.1469 C.2         1 PRO       0.2269
      4 O           2.6998   28.0491   19.6697 O.2         1 PRO      -0.3907
      5 CB          2.3777   24.9643   19.4659 C.3         1 PRO       0.0127
      6 CG          2.4430   23.9339   20.6039 C.3         1 PRO      -0.0053
      7 CD          3.0869   24.6982   21.7808 C.3         1 PRO      -0.0313
      8 N           4.0500   27.4665   17.9969 N.am        1 PRO      -0.2592
      9 CA          4.0085   28.6702   17.2025 C.3         1 PRO       0.1422
     10 C           4.6336   29.8077   17.8840 C.2         1 PRO       0.2060
     11 O           4.5659   29.9133   19.1025 O.2         1 PRO      -0.3942
     12 CB          2.6032   28.9256   16.5417 C.3         1 PRO       0.0427
     13 CG          2.1297   30.3247   16.4551 C.2         1 PRO       0.0561
     14 ND1         1.9057   31.0328   15.3389 N.pl3       1 PRO      -0.2623
     15 CD2         1.7585   31.1413   17.5184 C.2         1 PRO      -0.0276
     16 CE1         1.4241   32.2345   15.6933 C.2         1 PRO       0.0875
     17 NE2         1.3257   32.3128   17.0289 N.2         1 PRO      -0.3437
     18 N           5.2025   30.7654   17.1554 N.am        1 PRO      -0.2636
     19 CA          5.8090   31.9833   17.6184 C.3         1 PRO       0.1312
     20 C           6.2475   32.7501   16.4485 C.2         1 PRO       0.2040
     21 O           7.4408   32.9298   16.2342 O.2         1 PRO      -0.3944
     22 CB          6.8918   31.7543   18.7372 C.3         1 PRO      -0.0101
     23 CG          7.7381   30.4373   18.7139 C.3         1 PRO      -0.0425
     24 CD1         8.3113   30.0843   17.3166 C.3         1 PRO      -0.0625
     25 CD2         8.8867   30.5005   19.7623 C.3         1 PRO      -0.0625
     26 N           5.3413   33.2351   15.6028 N.am        1 PRO      -0.2616
     27 CA          5.5953   33.9101   14.3504 C.3         1 PRO       0.1538
     28 C           4.5905   34.9244   14.0218 C.2         1 PRO       0.2045
     29 O           3.6101   35.0766   14.7411 O.2         1 PRO      -0.3944
     30 CB          5.7859   32.8124   13.2607 C.3         1 PRO       0.0843
     31 OG          4.6569   31.9522   13.1111 O.3         1 PRO      -0.3903
     32 N           4.7574   35.7106   12.9625 N.am        1 PRO      -0.2748
     33 C1          3.9292   36.7810   12.4541 C.3         1 PRO       0.0911
     34 C2          2.3881   36.6450   12.6889 C.3         1 PRO       0.0089
     35 C3          1.7234   35.5657   11.9096 C.ar        1 PRO      -0.0406
     36 C4          1.0055   35.8701   10.7280 C.ar        1 PRO      -0.0603
     37 C5          1.7286   34.2293   12.3695 C.ar        1 PRO      -0.0603
     38 C6          0.3212   34.8660   10.0222 C.ar        1 PRO      -0.0686
     39 C7          1.0373   33.2238   11.6711 C.ar        1 PRO      -0.0686
     40 C8          0.3317   33.5425   10.4978 C.ar        1 PRO      -0.0687
     41 C9          4.4290   38.1981   12.8946 C.3         1 PRO      -0.0062
     42 N2          4.1302   39.2088   11.8394 N.4         1 PRO       0.2479
     43 C10         3.6078   40.5582   12.2028 C.3         1 PRO       0.0676
     44 C11         4.4278   41.2975   13.3122 C.3         1 PRO       0.0169
     45 C12         4.1734   42.8275   13.4978 C.3         1 PRO       0.0007
     46 SD          2.4590   43.4339   13.5564 S.3         1 PRO      -0.1638
     47 C13         1.7170   42.2447   14.7021 C.3         1 PRO      -0.0181
     48 C           3.5367   41.3524   10.9784 C.2         1 PRO       0.2268
     49 O           4.4145   41.2083   10.1297 O.2         1 PRO      -0.3907
     50 N           2.6018   42.2872   10.8546 N.am        1 PRO      -0.2613
     51 CA          2.4993   43.2795    9.8210 C.3         1 PRO       0.1283
     52 C           2.7262   44.5860   10.4292 C.2         1 PRO       0.2032
     53 O           1.7771   45.1881   10.9226 O.2         1 PRO      -0.3944
     54 CB          1.1279   43.1394    9.1126 C.3         1 PRO      -0.0244
     55 N           3.9775   45.0063   10.5912 N.am        1 PRO      -0.2677
     56 CA          4.5005   46.1423   11.3088 C.3         1 PRO       0.1056
     57 C           3.5543   47.2416   11.6303 C.2         1 PRO       0.0621
     58 O           3.1922   47.4872   12.9115 O.co2       1 PRO      -0.5664
     59 CB          5.7714   46.6745   10.5804 C.3         1 PRO       0.0372
     60 CG          5.5237   47.4634    9.3542 C.2         1 PRO       0.0555
     61 ND1         6.0773   48.6509    9.0803 N.pl3       1 PRO      -0.2623
     62 CD2         4.6897   47.1637    8.2796 C.2         1 PRO      -0.0276
     63 CE1         5.6127   49.0745    7.8958 C.2         1 PRO       0.0875
     64 NE2         4.7525   48.1720    7.3964 N.2         1 PRO      -0.3437
     65 OXT         2.9223   47.9266   10.6527 O.co2       1 PRO      -0.5664
     66 H1          2.9732   26.7275   21.5691 H           1 PRO       0.2035
     67 H2          4.5410   26.1530   21.5783 H           1 PRO       0.2035
     68 H3          4.4869   25.4223   19.4532 H           1 PRO       0.1099
     69 H4          2.4857   24.4938   18.4843 H           1 PRO       0.0347
     70 H5          1.4202   25.4947   19.5078 H           1 PRO       0.0347
     71 H6          3.0757   23.0913   20.3074 H           1 PRO       0.0320
     72 H7          1.4475   23.5590   20.8567 H           1 PRO       0.0320
     73 H8          2.3481   24.9016   22.5599 H           1 PRO       0.0814
     74 H9          3.9109   24.1236   22.2136 H           1 PRO       0.0814
     75 H10         4.5718   26.7321   17.6326 H           1 PRO       0.1886
     76 H11         4.6787   28.4254   16.3697 H           1 PRO       0.0824
     77 H12         1.8258   28.3694   17.0679 H           1 PRO       0.0491
     78 H13         2.6193   28.5209   15.5246 H           1 PRO       0.0491
     79 H14         2.0431   30.7179   14.4313 H           1 PRO       0.2386
     80 H15         1.7840   30.8913   18.5081 H           1 PRO       0.0324
     81 H16         1.1462   32.9726   15.0471 H           1 PRO       0.1149
     82 H17         5.1957   30.6280   16.1959 H           1 PRO       0.1883
     83 H18         5.0208   32.5884   18.0747 H           1 PRO       0.0800
     84 H19         6.3654   31.7659   19.6971 H           1 PRO       0.0315
     85 H20         7.5743   32.6086   18.7633 H           1 PRO       0.0315
     86 H21         7.0923   29.6073   19.0149 H           1 PRO       0.0298
     87 H22         8.8539   29.1370   17.3617 H           1 PRO       0.0232
     88 H23         8.9924   30.8671   16.9758 H           1 PRO       0.0232
     89 H24         7.5108   29.9694   16.5853 H           1 PRO       0.0232
     90 H25         8.4851   30.7109   20.7569 H           1 PRO       0.0232
     91 H26         9.6056   31.2830   19.5062 H           1 PRO       0.0232
     92 H27         9.4170   29.5446   19.8091 H           1 PRO       0.0232
     93 H28         4.4115   33.0395   15.8008 H           1 PRO       0.1884
     94 H29         6.5382   34.4617   14.4191 H           1 PRO       0.0823
     95 H30         6.6321   32.1842   13.5452 H           1 PRO       0.0606
     96 H31         6.0303   33.2545   12.2910 H           1 PRO       0.0606
     97 H32         4.1915   32.2502   12.3031 H           1 PRO       0.2097
     98 H33         5.5578   35.5433   12.4390 H           1 PRO       0.1859
     99 H34         4.0810   36.7293   11.3708 H           1 PRO       0.0632
    100 H35         1.9235   37.6021   12.4326 H           1 PRO       0.0450
    101 H36         2.1789   36.4950   13.7501 H           1 PRO       0.0450
    102 H37         0.9731   36.8295   10.3781 H           1 PRO       0.0557
    103 H38         2.2215   33.9826   13.2278 H           1 PRO       0.0557
    104 H39        -0.1897   35.1012    9.1686 H           1 PRO       0.0599
    105 H40         1.0445   32.2615   12.0172 H           1 PRO       0.0599
    106 H41        -0.1670   32.8116    9.9874 H           1 PRO       0.0559
    107 H42         5.5145   38.1891   13.0304 H           1 PRO       0.0839
    108 H43         3.9708   38.4692   13.8513 H           1 PRO       0.0839
    109 H44         3.4402   38.7994   11.2017 H           1 PRO       0.2036
    110 H45         4.9953   39.3406   11.3024 H           1 PRO       0.2036
    111 H46         2.5935   40.4042   12.5920 H           1 PRO       0.1099
    112 H47         5.4954   41.1635   13.0939 H           1 PRO       0.0354
    113 H48         4.2350   40.8103   14.2714 H           1 PRO       0.0354
    114 H49         4.6484   43.3507   12.6666 H           1 PRO       0.0380
    115 H50         4.6775   43.1599   14.4100 H           1 PRO       0.0380
    116 H51         0.7010   42.5760   14.9484 H           1 PRO       0.0340
    117 H52         2.3112   42.1885   15.6181 H           1 PRO       0.0340
    118 H53         1.6669   41.2565   14.2332 H           1 PRO       0.0340
    119 H54         1.9735   42.3764   11.5934 H           1 PRO       0.1884
    120 H55         3.2599   43.1231    9.0495 H           1 PRO       0.0797
    121 H56         1.0337   43.8924    8.3276 H           1 PRO       0.0277
    122 H57         0.3042   43.2636    9.8197 H           1 PRO       0.0277
    123 H58         1.0402   42.1512    8.6567 H           1 PRO       0.0277
    124 H59         4.6616   44.4040   10.2467 H           1 PRO       0.1877
    125 H60         4.8548   45.7388   12.2610 H           1 PRO       0.0750
    126 H61         6.4127   45.8301   10.3141 H           1 PRO       0.0484
    127 H62         6.3387   47.2967   11.2786 H           1 PRO       0.0484
    128 H63         6.6995   49.1289    9.6493 H           1 PRO       0.2386
    129 H64         4.1107   46.3284    8.1798 H           1 PRO       0.0324
    130 H65         5.8697   49.9536    7.4482 H           1 PRO       0.1149
@<TRIPOS>BOND
     1     1     2   1
     2     1     7   1
     3     2     3   1
     4     2     5   1
     5     3     4   2
     6     3     8  am
     7     5     6   1
     8     6     7   1
     9     8     9   1
    10     9    10   1
    11     9    12   1
    12    10    11   2
    13    10    18  am
    14    12    13   1
    15    13    14   1
    16    13    15   2
    17    14    16   1
    18    15    17   1
    19    16    17   2
    20    18    19   1
    21    19    20   1
    22    19    22   1
    23    20    21   2
    24    20    26  am
    25    22    23   1
    26    23    24   1
    27    23    25   1
    28    26    27   1
    29    27    28   1
    30    27    30   1
    31    28    29   2
    32    28    32  am
    33    30    31   1
    34    32    33   1
    35    33    34   1
    36    33    41   1
    37    34    35   1
    38    35    36  ar
    39    35    37  ar
    40    36    38  ar
    41    37    39  ar
    42    38    40  ar
    43    39    40  ar
    44    41    42   1
    45    42    43   1
    46    43    44   1
    47    43    48   1
    48    44    45   1
    49    45    46   1
    50    46    47   1
    51    48    49   2
    52    48    50  am
    53    50    51   1
    54    51    52   1
    55    51    54   1
    56    52    53   2
    57    52    55  am
    58    55    56   1
    59    56    57   1
    60    56    59   1
    61    57    58  ar
    62    57    65  ar
    63    59    60   1
    64    60    61   1
    65    60    62   2
    66    61    63   1
    67    62    64   1
    68    63    64   2
    69     1    66   1
    70     1    67   1
    71     2    68   1
    72     5    69   1
    73     5    70   1
    74     6    71   1
    75     6    72   1
    76     7    73   1
    77     7    74   1
    78     8    75   1
    79     9    76   1
    80    12    77   1
    81    12    78   1
    82    14    79   1
    83    15    80   1
    84    16    81   1
    85    18    82   1
    86    19    83   1
    87    22    84   1
    88    22    85   1
    89    23    86   1
    90    24    87   1
    91    24    88   1
    92    24    89   1
    93    25    90   1
    94    25    91   1
    95    25    92   1
    96    26    93   1
    97    27    94   1
    98    30    95   1
    99    30    96   1
   100    31    97   1
   101    32    98   1
   102    33    99   1
   103    34   100   1
   104    34   101   1
   105    36   102   1
   106    37   103   1
   107    38   104   1
   108    39   105   1
   109    40   106   1
   110    41   107   1
   111    41   108   1
   112    42   109   1
   113    42   110   1
   114    43   111   1
   115    44   112   1
   116    44   113   1
   117    45   114   1
   118    45   115   1
   119    47   116   1
   120    47   117   1
   121    47   118   1
   122    50   119   1
   123    51   120   1
   124    54   121   1
   125    54   122   1
   126    54   123   1
   127    55   124   1
   128    56   125   1
   129    59   126   1
   130    59   127   1
   131    61   128   1
   132    62   129   1
   133    63   130   1
@<TRIPOS>SUBSTRUCTURE
     1  PRO      2

