@<TRIPOS>MOLECULE
3uri_ligand_046
   130   133
SMALL
GAST_HUCK
****
This file was generated by PARSER (from files_GN.cpp)

@<TRIPOS>ATOM
      1 N           2.5520   25.3176   19.0216 N.4         1 PRO       0.2461
      2 CA          2.4193   26.5187   18.1769 C.3         1 PRO       0.0670
      3 C           3.3262   27.5927   18.5571 C.2         1 PRO       0.2269
      4 O           2.9110   28.5000   19.2772 O.2         1 PRO      -0.3907
      5 CB          0.9077   26.8348   18.2596 C.3         1 PRO       0.0127
      6 CG          0.2580   25.4371   18.2405 C.3         1 PRO      -0.0053
      7 CD          1.3323   24.5060   18.8482 C.3         1 PRO      -0.0313
      8 N           4.5743   27.5935   18.1019 N.am        1 PRO      -0.2592
      9 CA          5.5781   28.6147   18.2684 C.3         1 PRO       0.1422
     10 C           5.1331   29.9367   17.7853 C.2         1 PRO       0.2060
     11 O           3.9478   30.0853   17.5155 O.2         1 PRO      -0.3942
     12 CB          6.9018   28.1204   17.5880 C.3         1 PRO       0.0427
     13 CG          8.1037   28.2445   18.4441 C.2         1 PRO       0.0561
     14 ND1         9.2342   28.8931   18.1464 N.pl3       1 PRO      -0.2623
     15 CD2         8.3166   27.6410   19.6774 C.2         1 PRO      -0.0276
     16 CE1        10.1085   28.7106   19.1447 C.2         1 PRO       0.0875
     17 NE2         9.5560   27.9403   20.0989 N.2         1 PRO      -0.3437
     18 N           5.9646   30.9793   17.7672 N.am        1 PRO      -0.2636
     19 CA          5.6073   32.3668   17.5476 C.3         1 PRO       0.1312
     20 C           5.2503   32.6321   16.1453 C.2         1 PRO       0.2040
     21 O           4.4324   31.8986   15.5981 O.2         1 PRO      -0.3944
     22 CB          6.7024   33.3191   18.1375 C.3         1 PRO      -0.0101
     23 CG          7.2012   33.1105   19.6149 C.3         1 PRO      -0.0425
     24 CD1         6.1715   32.4386   20.5728 C.3         1 PRO      -0.0625
     25 CD2         8.5850   32.4026   19.6885 C.3         1 PRO      -0.0625
     26 N           5.6879   33.6909   15.4622 N.am        1 PRO      -0.2616
     27 CA          5.3739   34.0755   14.1094 C.3         1 PRO       0.1538
     28 C           4.0440   34.6715   13.9819 C.2         1 PRO       0.2045
     29 O           3.7626   35.5897   14.7437 O.2         1 PRO      -0.3944
     30 CB          5.7161   32.9319   13.1109 C.3         1 PRO       0.0843
     31 OG          4.7352   31.8945   13.1226 O.3         1 PRO      -0.3903
     32 N           3.2287   34.3696   12.9754 N.am        1 PRO      -0.2748
     33 C1          1.9665   34.9836   12.6436 C.3         1 PRO       0.0911
     34 C2          2.2361   36.1383   11.6228 C.3         1 PRO       0.0089
     35 C3          2.8424   37.3514   12.2422 C.ar        1 PRO      -0.0406
     36 C4          2.0158   38.3857   12.7434 C.ar        1 PRO      -0.0603
     37 C5          4.2437   37.4880   12.3534 C.ar        1 PRO      -0.0603
     38 C6          2.5829   39.5431   13.3201 C.ar        1 PRO      -0.0686
     39 C7          4.8112   38.6380   12.9391 C.ar        1 PRO      -0.0686
     40 C8          3.9765   39.6647   13.4222 C.ar        1 PRO      -0.0687
     41 C9          0.9713   33.9091   12.0779 C.3         1 PRO      -0.0062
     42 N2         -0.2484   33.7091   12.9030 N.4         1 PRO       0.2479
     43 C10        -1.2529   34.8142   13.0575 C.3         1 PRO       0.0676
     44 C11        -2.0553   35.0328   11.7223 C.3         1 PRO       0.0169
     45 C12        -2.5083   36.5057   11.4691 C.3         1 PRO       0.0007
     46 SD         -1.2585   37.4453   10.5406 S.3         1 PRO      -0.1638
     47 C13        -2.3826   38.3600    9.4588 C.3         1 PRO      -0.0181
     48 C          -2.1158   34.5221   14.2162 C.2         1 PRO       0.2268
     49 O          -1.8242   33.5933   14.9720 O.2         1 PRO      -0.3907
     50 N          -3.1930   35.2481   14.5022 N.am        1 PRO      -0.2613
     51 CA         -4.0025   35.1718   15.6907 C.3         1 PRO       0.1283
     52 C          -4.3195   33.8012   16.0946 C.2         1 PRO       0.2032
     53 O          -5.0574   33.1260   15.3884 O.2         1 PRO      -0.3944
     54 CB         -5.3045   35.9874   15.4904 C.3         1 PRO      -0.0244
     55 N          -3.8138   33.3022   17.2151 N.am        1 PRO      -0.2677
     56 CA         -4.0468   31.9934   17.7757 C.3         1 PRO       0.1056
     57 C          -5.4690   31.8729   18.1724 C.2         1 PRO       0.0621
     58 O          -6.3710   31.2862   17.3451 O.co2       1 PRO      -0.5664
     59 CB         -3.1149   31.7456   18.9993 C.3         1 PRO       0.0372
     60 CG         -1.7195   31.4175   18.6393 C.2         1 PRO       0.0555
     61 ND1        -1.0200   31.8917   17.6008 N.pl3       1 PRO      -0.2623
     62 CD2        -0.8557   30.5605   19.3200 C.2         1 PRO      -0.0276
     63 CE1         0.2053   31.3525   17.6201 C.2         1 PRO       0.0875
     64 NE2         0.3233   30.5317   18.6773 N.2         1 PRO      -0.3437
     65 OXT        -5.9141   32.3944   19.3368 O.co2       1 PRO      -0.5664
     66 H1          2.6281   25.5962   20.0037 H           1 PRO       0.2035
     67 H2          3.3781   24.7799   18.7514 H           1 PRO       0.2035
     68 H3          2.6258   26.2132   17.1432 H           1 PRO       0.1099
     69 H4          0.5685   27.4470   17.4175 H           1 PRO       0.0347
     70 H5          0.6588   27.3375   19.2008 H           1 PRO       0.0347
     71 H6          0.0447   25.1368   17.2074 H           1 PRO       0.0320
     72 H7         -0.6736   25.4196   18.8186 H           1 PRO       0.0320
     73 H8          1.0128   24.1155   19.8190 H           1 PRO       0.0814
     74 H9          1.5386   23.6685   18.1740 H           1 PRO       0.0814
     75 H10         4.8293   26.7873   17.6245 H           1 PRO       0.1886
     76 H11         5.7527   28.7099   19.3466 H           1 PRO       0.0824
     77 H12         7.0758   28.6483   16.6474 H           1 PRO       0.0491
     78 H13         6.8356   27.0603   17.3323 H           1 PRO       0.0491
     79 H14         9.4200   29.3990   17.3405 H           1 PRO       0.2386
     80 H15         7.6496   27.0626   20.1890 H           1 PRO       0.0324
     81 H16        11.0571   29.0886   19.1747 H           1 PRO       0.1149
     82 H17         6.8898   30.8000   17.9965 H           1 PRO       0.1883
     83 H18         4.7005   32.5647   18.1286 H           1 PRO       0.0800
     84 H19         6.2946   34.3339   18.0784 H           1 PRO       0.0315
     85 H20         7.5672   33.2910   17.4709 H           1 PRO       0.0315
     86 H21         7.3647   34.1190   20.0255 H           1 PRO       0.0298
     87 H22         6.5523   32.4660   21.6015 H           1 PRO       0.0232
     88 H23         6.0072   31.3984   20.2817 H           1 PRO       0.0232
     89 H24         5.2210   32.9835   20.5442 H           1 PRO       0.0232
     90 H25         9.3281   32.9691   19.1209 H           1 PRO       0.0232
     91 H26         8.5139   31.3987   19.2797 H           1 PRO       0.0232
     92 H27         8.9251   32.3381   20.7240 H           1 PRO       0.0232
     93 H28         6.2670   34.3104   15.9447 H           1 PRO       0.1884
     94 H29         6.0780   34.8845   13.8793 H           1 PRO       0.0823
     95 H30         6.6832   32.4843   13.3503 H           1 PRO       0.0606
     96 H31         5.7797   33.3488   12.0959 H           1 PRO       0.0606
     97 H32         4.5613   31.7273   12.1570 H           1 PRO       0.2097
     98 H33         3.5327   33.6919   12.3499 H           1 PRO       0.1859
     99 H34         1.5172   35.4303   13.5379 H           1 PRO       0.0632
    100 H35         1.2958   36.4329   11.1489 H           1 PRO       0.0450
    101 H36         2.8797   35.7723   10.8151 H           1 PRO       0.0450
    102 H37         0.9972   38.3182   12.6835 H           1 PRO       0.0557
    103 H38         4.8640   36.7541   12.0086 H           1 PRO       0.0557
    104 H39         1.9779   40.2925   13.6646 H           1 PRO       0.0599
    105 H40         5.8273   38.7247   13.0141 H           1 PRO       0.0599
    106 H41         4.3921   40.4994   13.8464 H           1 PRO       0.0559
    107 H42         1.4695   32.9346   12.0464 H           1 PRO       0.0839
    108 H43         0.6818   34.1329   11.0486 H           1 PRO       0.0839
    109 H44         0.0907   33.4477   13.8369 H           1 PRO       0.2036
    110 H45        -0.7425   32.8939   12.5225 H           1 PRO       0.2036
    111 H46        -0.7080   35.7270   13.2958 H           1 PRO       0.1099
    112 H47        -2.9463   34.3852   11.7253 H           1 PRO       0.0354
    113 H48        -1.4579   34.7064   10.8607 H           1 PRO       0.0354
    114 H49        -2.6988   37.0194   12.4170 H           1 PRO       0.0380
    115 H50        -3.4484   36.4811   10.9028 H           1 PRO       0.0380
    116 H51        -1.7876   38.9985    8.8020 H           1 PRO       0.0340
    117 H52        -3.0595   38.9862   10.0471 H           1 PRO       0.0340
    118 H53        -2.9633   37.6672    8.8435 H           1 PRO       0.0340
    119 H54        -3.4264   35.9562   13.8756 H           1 PRO       0.1884
    120 H55        -3.4453   35.6751   16.4832 H           1 PRO       0.0797
    121 H56        -5.9102   35.9734   16.4001 H           1 PRO       0.0277
    122 H57        -5.8990   35.5783   14.6679 H           1 PRO       0.0277
    123 H58        -5.0646   37.0279   15.2568 H           1 PRO       0.0277
    124 H59        -3.1892   33.8750   17.6953 H           1 PRO       0.1877
    125 H60        -3.8261   31.2428   17.0131 H           1 PRO       0.0750
    126 H61        -3.5126   30.9207   19.5948 H           1 PRO       0.0484
    127 H62        -3.1025   32.6335   19.6369 H           1 PRO       0.0484
    128 H63        -1.3578   32.5032   16.9270 H           1 PRO       0.2386
    129 H64        -1.0732   30.0361   20.1687 H           1 PRO       0.0324
    130 H65         0.9402   31.5336   16.9335 H           1 PRO       0.1149
@<TRIPOS>BOND
     1     1     2   1
     2     1     7   1
     3     2     3   1
     4     2     5   1
     5     3     4   2
     6     3     8  am
     7     5     6   1
     8     6     7   1
     9     8     9   1
    10     9    10   1
    11     9    12   1
    12    10    11   2
    13    10    18  am
    14    12    13   1
    15    13    14   1
    16    13    15   2
    17    14    16   1
    18    15    17   1
    19    16    17   2
    20    18    19   1
    21    19    20   1
    22    19    22   1
    23    20    21   2
    24    20    26  am
    25    22    23   1
    26    23    24   1
    27    23    25   1
    28    26    27   1
    29    27    28   1
    30    27    30   1
    31    28    29   2
    32    28    32  am
    33    30    31   1
    34    32    33   1
    35    33    34   1
    36    33    41   1
    37    34    35   1
    38    35    36  ar
    39    35    37  ar
    40    36    38  ar
    41    37    39  ar
    42    38    40  ar
    43    39    40  ar
    44    41    42   1
    45    42    43   1
    46    43    44   1
    47    43    48   1
    48    44    45   1
    49    45    46   1
    50    46    47   1
    51    48    49   2
    52    48    50  am
    53    50    51   1
    54    51    52   1
    55    51    54   1
    56    52    53   2
    57    52    55  am
    58    55    56   1
    59    56    57   1
    60    56    59   1
    61    57    58  ar
    62    57    65  ar
    63    59    60   1
    64    60    61   1
    65    60    62   2
    66    61    63   1
    67    62    64   1
    68    63    64   2
    69     1    66   1
    70     1    67   1
    71     2    68   1
    72     5    69   1
    73     5    70   1
    74     6    71   1
    75     6    72   1
    76     7    73   1
    77     7    74   1
    78     8    75   1
    79     9    76   1
    80    12    77   1
    81    12    78   1
    82    14    79   1
    83    15    80   1
    84    16    81   1
    85    18    82   1
    86    19    83   1
    87    22    84   1
    88    22    85   1
    89    23    86   1
    90    24    87   1
    91    24    88   1
    92    24    89   1
    93    25    90   1
    94    25    91   1
    95    25    92   1
    96    26    93   1
    97    27    94   1
    98    30    95   1
    99    30    96   1
   100    31    97   1
   101    32    98   1
   102    33    99   1
   103    34   100   1
   104    34   101   1
   105    36   102   1
   106    37   103   1
   107    38   104   1
   108    39   105   1
   109    40   106   1
   110    41   107   1
   111    41   108   1
   112    42   109   1
   113    42   110   1
   114    43   111   1
   115    44   112   1
   116    44   113   1
   117    45   114   1
   118    45   115   1
   119    47   116   1
   120    47   117   1
   121    47   118   1
   122    50   119   1
   123    51   120   1
   124    54   121   1
   125    54   122   1
   126    54   123   1
   127    55   124   1
   128    56   125   1
   129    59   126   1
   130    59   127   1
   131    61   128   1
   132    62   129   1
   133    63   130   1
@<TRIPOS>SUBSTRUCTURE
     1  PRO      2

