@<TRIPOS>MOLECULE
3uri_ligand_047
   130   133
SMALL
GAST_HUCK
****
This file was generated by PARSER (from files_GN.cpp)

@<TRIPOS>ATOM
      1 N          -6.9674   35.5265   16.3923 N.4         1 PRO       0.2461
      2 CA         -6.3243   36.6715   15.7234 C.3         1 PRO       0.0670
      3 C          -5.0099   36.3539   15.2047 C.2         1 PRO       0.2269
      4 O          -4.0081   36.4808   15.9106 O.2         1 PRO      -0.3907
      5 CB         -6.3344   37.7850   16.7942 C.3         1 PRO       0.0127
      6 CG         -7.6521   37.5493   17.5463 C.3         1 PRO      -0.0053
      7 CD         -7.9747   36.0590   17.3247 C.3         1 PRO      -0.0313
      8 N          -4.8593   35.9207   13.9531 N.am        1 PRO      -0.2592
      9 CA         -3.6306   35.5769   13.3011 C.3         1 PRO       0.1422
     10 C          -2.5708   36.5669   13.4879 C.2         1 PRO       0.2060
     11 O          -2.8504   37.7616   13.5888 O.2         1 PRO      -0.3942
     12 CB         -3.8784   35.3093   11.7788 C.3         1 PRO       0.0427
     13 CG         -4.4016   36.4728   11.0217 C.2         1 PRO       0.0561
     14 ND1        -3.7419   37.6189   10.7932 N.pl3       1 PRO      -0.2623
     15 CD2        -5.6411   36.6044   10.4022 C.2         1 PRO      -0.0276
     16 CE1        -4.5397   38.4274   10.0751 C.2         1 PRO       0.0875
     17 NE2        -5.7096   37.8167    9.8233 N.2         1 PRO      -0.3437
     18 N          -1.3018   36.1642   13.4513 N.am        1 PRO      -0.2636
     19 CA         -0.1124   36.9912   13.3882 C.3         1 PRO       0.1312
     20 C           1.1087   36.1705   13.3410 C.2         1 PRO       0.2040
     21 O           2.1527   36.6391   13.7966 O.2         1 PRO      -0.3944
     22 CB         -0.0925   38.0756   14.5411 C.3         1 PRO      -0.0101
     23 CG         -0.3386   39.5474   14.0538 C.3         1 PRO      -0.0425
     24 CD1        -0.6521   40.4882   15.2495 C.3         1 PRO      -0.0625
     25 CD2         0.8566   40.1069   13.2284 C.3         1 PRO      -0.0625
     26 N           1.1486   34.9879   12.7164 N.am        1 PRO      -0.2616
     27 CA          2.2200   34.0303   12.6495 C.3         1 PRO       0.1538
     28 C           2.6569   33.6593   13.9956 C.2         1 PRO       0.2045
     29 O           3.1268   34.5204   14.7253 O.2         1 PRO      -0.3944
     30 CB          3.3995   34.4579   11.7329 C.3         1 PRO       0.0843
     31 OG          2.9554   34.6275   10.3880 O.3         1 PRO      -0.3903
     32 N           2.4789   32.4146   14.4467 N.am        1 PRO      -0.2748
     33 C1          2.6978   31.9585   15.7964 C.3         1 PRO       0.0911
     34 C2          1.7507   30.7497   16.0738 C.3         1 PRO       0.0089
     35 C3          0.3122   31.1152   15.9280 C.ar        1 PRO      -0.0406
     36 C4         -0.3453   30.9614   14.6867 C.ar        1 PRO      -0.0603
     37 C5         -0.4055   31.6776   17.0113 C.ar        1 PRO      -0.0603
     38 C6         -1.6939   31.3495   14.5290 C.ar        1 PRO      -0.0686
     39 C7         -1.7572   32.0483   16.8610 C.ar        1 PRO      -0.0686
     40 C8         -2.4009   31.8828   15.6255 C.ar        1 PRO      -0.0687
     41 C9          4.2036   31.6307   15.9822 C.3         1 PRO      -0.0062
     42 N2          4.5117   31.0293   17.3051 N.4         1 PRO       0.2479
     43 C10         5.9535   30.9660   17.7006 C.3         1 PRO       0.0676
     44 C11         6.2745   32.0205   18.8121 C.3         1 PRO       0.0169
     45 C12         6.3189   33.5038   18.3487 C.3         1 PRO       0.0007
     46 SD          7.5894   33.9465   17.1254 S.3         1 PRO      -0.1638
     47 C13         8.9013   32.7929   17.6029 C.3         1 PRO      -0.0181
     48 C           6.3276   29.6310   18.1708 C.2         1 PRO       0.2268
     49 O           7.3037   29.0742   17.6787 O.2         1 PRO      -0.3907
     50 N           5.7148   29.0982   19.2238 N.am        1 PRO      -0.2613
     51 CA          6.1462   28.0011   20.0463 C.3         1 PRO       0.1283
     52 C           7.0656   28.4942   21.0648 C.2         1 PRO       0.2032
     53 O           8.2574   28.5985   20.7915 O.2         1 PRO      -0.3944
     54 CB          6.6625   26.7428   19.2818 C.3         1 PRO      -0.0244
     55 N           6.5686   28.9722   22.1984 N.am        1 PRO      -0.2677
     56 CA          7.2823   29.5208   23.3154 C.3         1 PRO       0.1056
     57 C           6.9173   28.7122   24.5061 C.2         1 PRO       0.0621
     58 O           6.4459   29.2739   25.6455 O.co2       1 PRO      -0.5664
     59 CB          7.0116   31.0514   23.4425 C.3         1 PRO       0.0372
     60 CG          5.5899   31.4560   23.3500 C.2         1 PRO       0.0555
     61 ND1         4.5322   30.8214   23.8791 N.pl3       1 PRO      -0.2623
     62 CD2         5.0867   32.5879   22.7115 C.2         1 PRO      -0.0276
     63 CE1         3.4266   31.5138   23.5628 C.2         1 PRO       0.0875
     64 NE2         3.7535   32.6060   22.8478 N.2         1 PRO      -0.3437
     65 OXT         7.1335   27.3743   24.4914 O.co2       1 PRO      -0.5664
     66 H1         -6.2626   35.0014   16.9210 H           1 PRO       0.2035
     67 H2         -7.4098   34.9161   15.6980 H           1 PRO       0.2035
     68 H3         -6.9780   36.9836   14.8966 H           1 PRO       0.1099
     69 H4         -6.2931   38.7796   16.3381 H           1 PRO       0.0347
     70 H5         -5.4931   37.6767   17.4894 H           1 PRO       0.0347
     71 H6         -8.4417   38.1750   17.1276 H           1 PRO       0.0320
     72 H7         -7.5404   37.7839   18.6050 H           1 PRO       0.0320
     73 H8         -7.9256   35.5055   18.2600 H           1 PRO       0.0814
     74 H9         -8.9683   35.9375   16.8954 H           1 PRO       0.0814
     75 H10        -5.6685   35.7596   13.4462 H           1 PRO       0.1886
     76 H11        -3.2919   34.6167   13.7218 H           1 PRO       0.0824
     77 H12        -4.5969   34.4899   11.6859 H           1 PRO       0.0491
     78 H13        -2.9480   34.9828   11.2989 H           1 PRO       0.0491
     79 H14        -2.8431   37.8285   11.0949 H           1 PRO       0.2386
     80 H15        -6.3817   35.9025   10.3862 H           1 PRO       0.0324
     81 H16        -4.2881   39.3678    9.7637 H           1 PRO       0.1149
     82 H17        -1.1559   35.2034   13.3879 H           1 PRO       0.1883
     83 H18        -0.1471   37.4972   12.4133 H           1 PRO       0.0800
     84 H19         0.8542   38.0648   15.0928 H           1 PRO       0.0315
     85 H20        -0.8613   37.8131   15.2820 H           1 PRO       0.0315
     86 H21        -1.2231   39.5548   13.4052 H           1 PRO       0.0298
     87 H22        -0.8739   41.4982   14.8911 H           1 PRO       0.0232
     88 H23         0.1983   40.5380   15.9375 H           1 PRO       0.0232
     89 H24        -1.5266   40.1255   15.7993 H           1 PRO       0.0232
     90 H25         1.0732   39.4628   12.3724 H           1 PRO       0.0232
     91 H26         1.7561   40.1737   13.8482 H           1 PRO       0.0232
     92 H27         0.6198   41.1046   12.8533 H           1 PRO       0.0232
     93 H28         0.3324   34.7166   12.2675 H           1 PRO       0.1884
     94 H29         1.7742   33.1507   12.1699 H           1 PRO       0.0823
     95 H30         4.1709   33.6855   11.7429 H           1 PRO       0.0606
     96 H31         3.8523   35.3910   12.0718 H           1 PRO       0.0606
     97 H32         3.6658   35.1383    9.9444 H           1 PRO       0.2097
     98 H33         2.1410   31.7486   13.8201 H           1 PRO       0.1859
     99 H34         2.4330   32.7477   16.5125 H           1 PRO       0.0632
    100 H35         1.9209   30.3746   17.0850 H           1 PRO       0.0450
    101 H36         1.9982   29.9314   15.3911 H           1 PRO       0.0450
    102 H37         0.1494   30.5800   13.8759 H           1 PRO       0.0557
    103 H38         0.0501   31.8288   17.9106 H           1 PRO       0.0557
    104 H39        -2.1518   31.2489   13.6226 H           1 PRO       0.0599
    105 H40        -2.2706   32.4422   17.6533 H           1 PRO       0.0599
    106 H41        -3.3828   32.1551   15.5102 H           1 PRO       0.0559
    107 H42         4.7652   32.5642   15.8686 H           1 PRO       0.0839
    108 H43         4.5231   30.9421   15.1979 H           1 PRO       0.0839
    109 H44         4.1178   30.0829   17.3051 H           1 PRO       0.2036
    110 H45         4.0136   31.5702   18.0154 H           1 PRO       0.2036
    111 H46         6.5958   31.1832   16.8419 H           1 PRO       0.1099
    112 H47         7.2326   31.7828   19.2848 H           1 PRO       0.0354
    113 H48         5.5148   31.9362   19.5936 H           1 PRO       0.0354
    114 H49         6.4653   34.1356   19.2275 H           1 PRO       0.0380
    115 H50         5.3527   33.7633   17.9115 H           1 PRO       0.0380
    116 H51         9.7747   32.9961   16.9906 H           1 PRO       0.0340
    117 H52         8.5875   31.7604   17.4153 H           1 PRO       0.0340
    118 H53         9.1683   32.9215   18.6572 H           1 PRO       0.0340
    119 H54         4.9366   29.5769   19.5575 H           1 PRO       0.1884
    120 H55         5.2295   27.6577   20.5405 H           1 PRO       0.0797
    121 H56         6.7647   25.9035   19.9716 H           1 PRO       0.0277
    122 H57         7.6336   26.9248   18.8177 H           1 PRO       0.0277
    123 H58         5.9546   26.4596   18.5014 H           1 PRO       0.0277
    124 H59         5.6016   28.9560   22.2673 H           1 PRO       0.1877
    125 H60         8.3639   29.3975   23.1845 H           1 PRO       0.0750
    126 H61         7.5762   31.5606   22.6556 H           1 PRO       0.0484
    127 H62         7.4095   31.4037   24.3982 H           1 PRO       0.0484
    128 H63         4.5596   29.9922   24.3859 H           1 PRO       0.2386
    129 H64         5.6353   33.2909   22.2100 H           1 PRO       0.0324
    130 H65         2.4753   31.2398   23.8178 H           1 PRO       0.1149
@<TRIPOS>BOND
     1     1     2   1
     2     1     7   1
     3     2     3   1
     4     2     5   1
     5     3     4   2
     6     3     8  am
     7     5     6   1
     8     6     7   1
     9     8     9   1
    10     9    10   1
    11     9    12   1
    12    10    11   2
    13    10    18  am
    14    12    13   1
    15    13    14   1
    16    13    15   2
    17    14    16   1
    18    15    17   1
    19    16    17   2
    20    18    19   1
    21    19    20   1
    22    19    22   1
    23    20    21   2
    24    20    26  am
    25    22    23   1
    26    23    24   1
    27    23    25   1
    28    26    27   1
    29    27    28   1
    30    27    30   1
    31    28    29   2
    32    28    32  am
    33    30    31   1
    34    32    33   1
    35    33    34   1
    36    33    41   1
    37    34    35   1
    38    35    36  ar
    39    35    37  ar
    40    36    38  ar
    41    37    39  ar
    42    38    40  ar
    43    39    40  ar
    44    41    42   1
    45    42    43   1
    46    43    44   1
    47    43    48   1
    48    44    45   1
    49    45    46   1
    50    46    47   1
    51    48    49   2
    52    48    50  am
    53    50    51   1
    54    51    52   1
    55    51    54   1
    56    52    53   2
    57    52    55  am
    58    55    56   1
    59    56    57   1
    60    56    59   1
    61    57    58  ar
    62    57    65  ar
    63    59    60   1
    64    60    61   1
    65    60    62   2
    66    61    63   1
    67    62    64   1
    68    63    64   2
    69     1    66   1
    70     1    67   1
    71     2    68   1
    72     5    69   1
    73     5    70   1
    74     6    71   1
    75     6    72   1
    76     7    73   1
    77     7    74   1
    78     8    75   1
    79     9    76   1
    80    12    77   1
    81    12    78   1
    82    14    79   1
    83    15    80   1
    84    16    81   1
    85    18    82   1
    86    19    83   1
    87    22    84   1
    88    22    85   1
    89    23    86   1
    90    24    87   1
    91    24    88   1
    92    24    89   1
    93    25    90   1
    94    25    91   1
    95    25    92   1
    96    26    93   1
    97    27    94   1
    98    30    95   1
    99    30    96   1
   100    31    97   1
   101    32    98   1
   102    33    99   1
   103    34   100   1
   104    34   101   1
   105    36   102   1
   106    37   103   1
   107    38   104   1
   108    39   105   1
   109    40   106   1
   110    41   107   1
   111    41   108   1
   112    42   109   1
   113    42   110   1
   114    43   111   1
   115    44   112   1
   116    44   113   1
   117    45   114   1
   118    45   115   1
   119    47   116   1
   120    47   117   1
   121    47   118   1
   122    50   119   1
   123    51   120   1
   124    54   121   1
   125    54   122   1
   126    54   123   1
   127    55   124   1
   128    56   125   1
   129    59   126   1
   130    59   127   1
   131    61   128   1
   132    62   129   1
   133    63   130   1
@<TRIPOS>SUBSTRUCTURE
     1  PRO      2

