@<TRIPOS>MOLECULE
3uri_ligand_025
   130   133
SMALL
GAST_HUCK
****
This file was generated by PARSER (from files_GN.cpp)

@<TRIPOS>ATOM
      1 N           8.6988   27.2962   21.8270 N.4         1 PRO       0.2461
      2 CA          7.8253   26.3992   21.0484 C.3         1 PRO       0.0670
      3 C           7.0897   27.0824   19.9989 C.2         1 PRO       0.2269
      4 O           7.4837   26.9564   18.8405 O.2         1 PRO      -0.3907
      5 CB          6.9501   25.7380   22.1331 C.3         1 PRO       0.0127
      6 CG          7.9400   25.5212   23.2912 C.3         1 PRO      -0.0053
      7 CD          9.0104   26.6194   23.0992 C.3         1 PRO      -0.0313
      8 N           6.0679   27.8777   20.2893 N.am        1 PRO      -0.2592
      9 CA          5.3290   28.7019   19.3682 C.3         1 PRO       0.1422
     10 C           6.0105   29.9842   19.2567 C.2         1 PRO       0.2060
     11 O           6.4685   30.3047   18.1627 O.2         1 PRO      -0.3942
     12 CB          3.8495   28.8811   19.8249 C.3         1 PRO       0.0427
     13 CG          3.0141   27.6813   19.6240 C.2         1 PRO       0.0561
     14 ND1         2.1261   27.1790   20.4931 N.pl3       1 PRO      -0.2623
     15 CD2         2.9364   26.8799   18.4859 C.2         1 PRO      -0.0276
     16 CE1         1.5299   26.1167   19.9292 C.2         1 PRO       0.0875
     17 NE2         2.0088   25.9288   18.6880 N.2         1 PRO      -0.3437
     18 N           6.1979   30.7437   20.3390 N.am        1 PRO      -0.2636
     19 CA          6.8478   32.0187   20.5117 C.3         1 PRO       0.1312
     20 C           6.9422   32.8958   19.3435 C.2         1 PRO       0.2040
     21 O           7.9394   33.5656   19.1377 O.2         1 PRO      -0.3944
     22 CB          8.1440   31.8516   21.3847 C.3         1 PRO      -0.0101
     23 CG          9.4637   31.1934   20.8202 C.3         1 PRO      -0.0425
     24 CD1         9.2838   30.1780   19.6626 C.3         1 PRO      -0.0625
     25 CD2        10.5818   32.2128   20.4572 C.3         1 PRO      -0.0625
     26 N           5.8573   33.0835   18.6101 N.am        1 PRO      -0.2616
     27 CA          5.6480   33.9367   17.4769 C.3         1 PRO       0.1538
     28 C           4.5165   33.3767   16.7436 C.2         1 PRO       0.2045
     29 O           3.3766   33.7151   17.0633 O.2         1 PRO      -0.3944
     30 CB          6.8702   34.1993   16.5459 C.3         1 PRO       0.0843
     31 OG          7.6238   33.0067   16.3236 O.3         1 PRO      -0.3903
     32 N           4.7125   32.4329   15.8207 N.am        1 PRO      -0.2748
     33 C1          3.7236   31.7349   15.0360 C.3         1 PRO       0.0911
     34 C2          2.7893   30.8657   15.9637 C.3         1 PRO       0.0089
     35 C3          1.3270   30.9200   15.6756 C.ar        1 PRO      -0.0406
     36 C4          0.5773   32.0660   16.0437 C.ar        1 PRO      -0.0603
     37 C5          0.6598   29.8693   14.9970 C.ar        1 PRO      -0.0603
     38 C6         -0.7833   32.1790   15.7032 C.ar        1 PRO      -0.0686
     39 C7         -0.7024   29.9808   14.6568 C.ar        1 PRO      -0.0686
     40 C8         -1.4239   31.1376   15.0090 C.ar        1 PRO      -0.0687
     41 C9          3.0101   32.6700   14.0119 C.3         1 PRO      -0.0062
     42 N2          3.9013   33.2449   12.9614 N.4         1 PRO       0.2479
     43 C10         3.4121   34.4422   12.2063 C.3         1 PRO       0.0676
     44 C11         1.9481   34.2710   11.6825 C.3         1 PRO       0.0169
     45 C12         1.6479   34.8785   10.2875 C.3         1 PRO       0.0007
     46 SD         -0.1161   34.8750    9.8462 S.3         1 PRO      -0.1638
     47 C13        -0.6082   33.2273   10.4163 C.3         1 PRO      -0.0181
     48 C           3.5835   35.6944   12.9519 C.2         1 PRO       0.2268
     49 O           3.2784   35.7137   14.1382 O.2         1 PRO      -0.3907
     50 N           3.9172   36.8171   12.3195 N.am        1 PRO      -0.2613
     51 CA          3.9946   38.1401   12.8872 C.3         1 PRO       0.1283
     52 C           2.8489   38.9258   12.4385 C.2         1 PRO       0.2032
     53 O           2.5598   38.9298   11.2450 O.2         1 PRO      -0.3944
     54 CB          5.3381   38.8047   12.5000 C.3         1 PRO      -0.0244
     55 N           2.1176   39.5885   13.3271 N.am        1 PRO      -0.2677
     56 CA          0.9498   40.3879   13.0793 C.3         1 PRO       0.1056
     57 C          -0.0411   39.6407   12.2668 C.2         1 PRO       0.0621
     58 O          -0.5863   38.4987   12.7444 O.co2       1 PRO      -0.5664
     59 CB          1.2910   41.8024   12.5115 C.3         1 PRO       0.0372
     60 CG          2.2208   42.5987   13.3421 C.2         1 PRO       0.0555
     61 ND1         3.0737   43.5305   12.8906 N.pl3       1 PRO      -0.2623
     62 CD2         2.3498   42.5909   14.7281 C.2         1 PRO      -0.0276
     63 CE1         3.7079   44.0693   13.9388 C.2         1 PRO       0.0875
     64 NE2         3.2881   43.4837   15.0743 N.2         1 PRO      -0.3437
     65 OXT        -0.4641   40.0723   11.0545 O.co2       1 PRO      -0.5664
     66 H1          8.2012   28.1683   22.0309 H           1 PRO       0.2035
     67 H2          9.5578   27.5023   21.3092 H           1 PRO       0.2035
     68 H3          8.4704   25.6261   20.6057 H           1 PRO       0.1099
     69 H4          6.5120   24.7994   21.7888 H           1 PRO       0.0347
     70 H5          6.1470   26.4104   22.4596 H           1 PRO       0.0347
     71 H6          8.3973   24.5283   23.2090 H           1 PRO       0.0320
     72 H7          7.4407   25.6060   24.2612 H           1 PRO       0.0320
     73 H8          8.9860   27.3464   23.9148 H           1 PRO       0.0814
     74 H9         10.0103   26.1783   23.0437 H           1 PRO       0.0814
     75 H10         5.8489   27.9814   21.2313 H           1 PRO       0.1886
     76 H11         5.2931   28.2278   18.3773 H           1 PRO       0.0824
     77 H12         3.3875   29.6883   19.2525 H           1 PRO       0.0491
     78 H13         3.8129   29.1659   20.8805 H           1 PRO       0.0491
     79 H14         1.9335   27.5317   21.3810 H           1 PRO       0.2386
     80 H15         3.4706   27.0075   17.6237 H           1 PRO       0.0324
     81 H16         0.7943   25.5556   20.3649 H           1 PRO       0.1149
     82 H17         5.8260   30.3796   21.1558 H           1 PRO       0.1883
     83 H18         6.1492   32.5591   21.1567 H           1 PRO       0.0800
     84 H19         7.8420   31.2661   22.2580 H           1 PRO       0.0315
     85 H20         8.3982   32.8407   21.7856 H           1 PRO       0.0315
     86 H21         9.8789   30.6192   21.6578 H           1 PRO       0.0298
     87 H22        10.2359   29.6856   19.4428 H           1 PRO       0.0232
     88 H23         8.9421   30.6915   18.7592 H           1 PRO       0.0232
     89 H24         8.5656   29.4093   19.9493 H           1 PRO       0.0232
     90 H25        10.8012   32.8643   21.3045 H           1 PRO       0.0232
     91 H26        10.3089   32.8254   19.5982 H           1 PRO       0.0232
     92 H27        11.5031   31.6877   20.2034 H           1 PRO       0.0232
     93 H28         5.0631   32.6222   18.9218 H           1 PRO       0.1884
     94 H29         5.3597   34.9037   17.8945 H           1 PRO       0.0823
     95 H30         7.5321   34.9469   16.9957 H           1 PRO       0.0606
     96 H31         6.5430   34.5940   15.5825 H           1 PRO       0.0606
     97 H32         8.1679   33.1901   15.5262 H           1 PRO       0.2097
     98 H33         5.6359   32.1847   15.6363 H           1 PRO       0.1859
     99 H34         4.2890   31.0222   14.4287 H           1 PRO       0.0632
    100 H35         2.9230   31.1541   17.0129 H           1 PRO       0.0450
    101 H36         3.1217   29.8217   15.9113 H           1 PRO       0.0450
    102 H37         1.0325   32.8368   16.5379 H           1 PRO       0.0557
    103 H38         1.1729   29.0281   14.7183 H           1 PRO       0.0557
    104 H39        -1.3036   33.0243   15.9533 H           1 PRO       0.0599
    105 H40        -1.1688   29.2238   14.1496 H           1 PRO       0.0599
    106 H41        -2.4112   31.2228   14.7598 H           1 PRO       0.0559
    107 H42         2.5038   33.4649   14.5559 H           1 PRO       0.0839
    108 H43         2.2477   32.0685   13.4990 H           1 PRO       0.0839
    109 H44         4.0545   32.5113   12.2532 H           1 PRO       0.2036
    110 H45         4.8046   33.4758   13.3858 H           1 PRO       0.2036
    111 H46         4.0675   34.4885   11.3318 H           1 PRO       0.1099
    112 H47         1.2512   34.6893   12.4199 H           1 PRO       0.0354
    113 H48         1.7370   33.1996   11.6023 H           1 PRO       0.0354
    114 H49         2.2030   34.3209    9.5239 H           1 PRO       0.0380
    115 H50         1.9763   35.9171   10.2579 H           1 PRO       0.0380
    116 H51        -1.5852   32.9920   10.0126 H           1 PRO       0.0340
    117 H52        -0.6657   33.2209   11.5084 H           1 PRO       0.0340
    118 H53         0.1081   32.4750   10.0855 H           1 PRO       0.0340
    119 H54         4.0829   36.7460   11.3644 H           1 PRO       0.1884
    120 H55         3.9889   38.0839   13.9831 H           1 PRO       0.0797
    121 H56         5.3866   39.8226   12.8975 H           1 PRO       0.0277
    122 H57         5.4585   38.8440   11.4157 H           1 PRO       0.0277
    123 H58         6.1655   38.2344   12.9224 H           1 PRO       0.0277
    124 H59         2.4149   39.5482   14.2505 H           1 PRO       0.1877
    125 H60         0.4777   40.5395   14.0537 H           1 PRO       0.0750
    126 H61         0.3627   42.3728   12.4182 H           1 PRO       0.0484
    127 H62         1.7206   41.7009   11.5104 H           1 PRO       0.0484
    128 H63         3.1897   43.7876   11.9606 H           1 PRO       0.2386
    129 H64         1.8335   41.9963   15.3773 H           1 PRO       0.0324
    130 H65         4.4045   44.8104   13.8846 H           1 PRO       0.1149
@<TRIPOS>BOND
     1     1     2   1
     2     1     7   1
     3     2     3   1
     4     2     5   1
     5     3     4   2
     6     3     8  am
     7     5     6   1
     8     6     7   1
     9     8     9   1
    10     9    10   1
    11     9    12   1
    12    10    11   2
    13    10    18  am
    14    12    13   1
    15    13    14   1
    16    13    15   2
    17    14    16   1
    18    15    17   1
    19    16    17   2
    20    18    19   1
    21    19    20   1
    22    19    22   1
    23    20    21   2
    24    20    26  am
    25    22    23   1
    26    23    24   1
    27    23    25   1
    28    26    27   1
    29    27    28   1
    30    27    30   1
    31    28    29   2
    32    28    32  am
    33    30    31   1
    34    32    33   1
    35    33    34   1
    36    33    41   1
    37    34    35   1
    38    35    36  ar
    39    35    37  ar
    40    36    38  ar
    41    37    39  ar
    42    38    40  ar
    43    39    40  ar
    44    41    42   1
    45    42    43   1
    46    43    44   1
    47    43    48   1
    48    44    45   1
    49    45    46   1
    50    46    47   1
    51    48    49   2
    52    48    50  am
    53    50    51   1
    54    51    52   1
    55    51    54   1
    56    52    53   2
    57    52    55  am
    58    55    56   1
    59    56    57   1
    60    56    59   1
    61    57    58  ar
    62    57    65  ar
    63    59    60   1
    64    60    61   1
    65    60    62   2
    66    61    63   1
    67    62    64   1
    68    63    64   2
    69     1    66   1
    70     1    67   1
    71     2    68   1
    72     5    69   1
    73     5    70   1
    74     6    71   1
    75     6    72   1
    76     7    73   1
    77     7    74   1
    78     8    75   1
    79     9    76   1
    80    12    77   1
    81    12    78   1
    82    14    79   1
    83    15    80   1
    84    16    81   1
    85    18    82   1
    86    19    83   1
    87    22    84   1
    88    22    85   1
    89    23    86   1
    90    24    87   1
    91    24    88   1
    92    24    89   1
    93    25    90   1
    94    25    91   1
    95    25    92   1
    96    26    93   1
    97    27    94   1
    98    30    95   1
    99    30    96   1
   100    31    97   1
   101    32    98   1
   102    33    99   1
   103    34   100   1
   104    34   101   1
   105    36   102   1
   106    37   103   1
   107    38   104   1
   108    39   105   1
   109    40   106   1
   110    41   107   1
   111    41   108   1
   112    42   109   1
   113    42   110   1
   114    43   111   1
   115    44   112   1
   116    44   113   1
   117    45   114   1
   118    45   115   1
   119    47   116   1
   120    47   117   1
   121    47   118   1
   122    50   119   1
   123    51   120   1
   124    54   121   1
   125    54   122   1
   126    54   123   1
   127    55   124   1
   128    56   125   1
   129    59   126   1
   130    59   127   1
   131    61   128   1
   132    62   129   1
   133    63   130   1
@<TRIPOS>SUBSTRUCTURE
     1  PRO      2

