@<TRIPOS>MOLECULE
3uri_ligand_049
   130   133
SMALL
GAST_HUCK
****
This file was generated by PARSER (from files_GN.cpp)

@<TRIPOS>ATOM
      1 N          -3.2481   32.3568   16.9806 N.4         1 PRO       0.2461
      2 CA         -3.6238   32.4510   18.4051 C.3         1 PRO       0.0670
      3 C          -3.3774   31.2024   19.1053 C.2         1 PRO       0.2269
      4 O          -4.3092   30.5089   19.5020 O.2         1 PRO      -0.3907
      5 CB         -5.0838   32.9514   18.3257 C.3         1 PRO       0.0127
      6 CG         -5.0682   33.9344   17.1424 C.3         1 PRO      -0.0053
      7 CD         -3.9234   33.4318   16.2394 C.3         1 PRO      -0.0313
      8 N          -2.1208   30.8035   19.2548 N.am        1 PRO      -0.2592
      9 CA         -1.6461   29.5506   19.7773 C.3         1 PRO       0.1422
     10 C          -0.2898   29.7479   20.2726 C.2         1 PRO       0.2060
     11 O           0.5739   30.1067   19.4775 O.2         1 PRO      -0.3942
     12 CB         -1.6708   28.4592   18.6617 C.3         1 PRO       0.0427
     13 CG         -2.9937   28.3401   18.0167 C.2         1 PRO       0.0561
     14 ND1        -4.0854   27.7731   18.5470 N.pl3       1 PRO      -0.2623
     15 CD2        -3.3668   28.8020   16.7559 C.2         1 PRO      -0.0276
     16 CE1        -5.0894   27.8811   17.6636 C.2         1 PRO       0.0875
     17 NE2        -4.6609   28.5149   16.5568 N.2         1 PRO      -0.3437
     18 N           0.0085   29.5495   21.5512 N.am        1 PRO      -0.2636
     19 CA          1.2861   29.8111   22.1708 C.3         1 PRO       0.1312
     20 C           2.3790   29.0697   21.5366 C.2         1 PRO       0.2040
     21 O           2.3978   27.8445   21.5993 O.2         1 PRO      -0.3944
     22 CB          1.2281   29.6723   23.7250 C.3         1 PRO      -0.0101
     23 CG          1.2102   28.2613   24.4028 C.3         1 PRO      -0.0425
     24 CD1         1.1576   28.4195   25.9477 C.3         1 PRO      -0.0625
     25 CD2         0.0494   27.3468   23.9199 C.3         1 PRO      -0.0625
     26 N           3.2462   29.7244   20.7725 N.am        1 PRO      -0.2616
     27 CA          4.2795   29.1944   19.9295 C.3         1 PRO       0.1538
     28 C           5.4857   30.0321   19.9219 C.2         1 PRO       0.2045
     29 O           6.2605   29.9239   18.9797 O.2         1 PRO      -0.3944
     30 CB          3.6686   29.0499   18.5081 C.3         1 PRO       0.0843
     31 OG          2.8138   30.1371   18.1565 O.3         1 PRO      -0.3903
     32 N           5.7289   30.9156   20.8791 N.am        1 PRO      -0.2748
     33 C1          6.7646   31.9083   20.9625 C.3         1 PRO       0.0911
     34 C2          8.1036   31.3717   21.5759 C.3         1 PRO       0.0089
     35 C3          8.9853   30.5853   20.6679 C.ar        1 PRO      -0.0406
     36 C4          9.9082   31.2447   19.8159 C.ar        1 PRO      -0.0603
     37 C5          8.9227   29.1715   20.6175 C.ar        1 PRO      -0.0603
     38 C6         10.6820   30.5218   18.8863 C.ar        1 PRO      -0.0686
     39 C7          9.7067   28.4449   19.7017 C.ar        1 PRO      -0.0686
     40 C8         10.5750   29.1198   18.8268 C.ar        1 PRO      -0.0687
     41 C9          6.9350   32.8049   19.6882 C.3         1 PRO      -0.0062
     42 N2          5.8803   32.6478   18.6501 N.4         1 PRO       0.2479
     43 C10         5.6939   33.7537   17.6738 C.3         1 PRO       0.0676
     44 C11         6.9923   34.1840   16.8808 C.3         1 PRO       0.0169
     45 C12         7.0776   34.2041   15.3268 C.3         1 PRO       0.0007
     46 SD          7.3517   32.6456   14.4450 S.3         1 PRO      -0.1638
     47 C13         8.2862   31.6563   15.6428 C.3         1 PRO      -0.0181
     48 C           4.5071   33.4607   16.8700 C.2         1 PRO       0.2268
     49 O           3.4135   33.9059   17.2048 O.2         1 PRO      -0.3907
     50 N           4.6116   32.7066   15.7763 N.am        1 PRO      -0.2613
     51 CA          3.6807   32.5397   14.6807 C.3         1 PRO       0.1283
     52 C           3.3288   33.7762   13.9774 C.2         1 PRO       0.2032
     53 O           3.2877   34.8236   14.6135 O.2         1 PRO      -0.3944
     54 CB          2.4246   31.7145   15.0761 C.3         1 PRO      -0.0244
     55 N           2.9494   33.7468   12.6996 N.am        1 PRO      -0.2677
     56 CA          2.5709   34.8495   11.8483 C.3         1 PRO       0.1056
     57 C           2.0539   36.0536   12.5380 C.2         1 PRO       0.0621
     58 O           1.1064   35.9570   13.4970 O.co2       1 PRO      -0.5664
     59 CB          1.5609   34.3810   10.7557 C.3         1 PRO       0.0372
     60 CG          0.1867   34.1373   11.2455 C.2         1 PRO       0.0555
     61 ND1        -0.9122   34.8299   10.9135 N.pl3       1 PRO      -0.2623
     62 CD2        -0.2330   33.1568   12.1413 C.2         1 PRO      -0.0276
     63 CE1        -1.9543   34.3275   11.5892 C.2         1 PRO       0.0875
     64 NE2        -1.5491   33.2960   12.3468 N.2         1 PRO      -0.3437
     65 OXT         2.6406   37.2633   12.3563 O.co2       1 PRO      -0.5664
     66 H1         -3.5627   31.4566   16.6098 H           1 PRO       0.2035
     67 H2         -2.2331   32.4338   16.8733 H           1 PRO       0.2035
     68 H3         -3.0092   33.2228   18.8767 H           1 PRO       0.1099
     69 H4         -5.4020   33.4401   19.2503 H           1 PRO       0.0347
     70 H5         -5.7656   32.1256   18.1012 H           1 PRO       0.0347
     71 H6         -4.8503   34.9473   17.4957 H           1 PRO       0.0320
     72 H7         -6.0261   33.9422   16.6124 H           1 PRO       0.0320
     73 H8         -4.3078   33.0342   15.2957 H           1 PRO       0.0814
     74 H9         -3.2128   34.2344   16.0224 H           1 PRO       0.0814
     75 H10        -1.4417   31.3800   18.8688 H           1 PRO       0.1886
     76 H11        -2.2852   29.2027   20.5980 H           1 PRO       0.0824
     77 H12        -1.4194   27.4837   19.0859 H           1 PRO       0.0491
     78 H13        -0.9221   28.6915   17.8971 H           1 PRO       0.0491
     79 H14        -4.1390   27.3450   19.4183 H           1 PRO       0.2386
     80 H15        -2.7591   29.2800   16.0883 H           1 PRO       0.0324
     81 H16        -6.0383   27.5290   17.8052 H           1 PRO       0.1149
     82 H17        -0.7118   29.2663   22.1358 H           1 PRO       0.1883
     83 H18         1.4573   30.8850   22.0101 H           1 PRO       0.0800
     84 H19         0.3485   30.2245   24.0722 H           1 PRO       0.0315
     85 H20         2.1024   30.2062   24.1136 H           1 PRO       0.0315
     86 H21         2.1512   27.7547   24.1700 H           1 PRO       0.0298
     87 H22         1.2234   27.4450   26.4385 H           1 PRO       0.0232
     88 H23         0.2260   28.9015   26.2553 H           1 PRO       0.0232
     89 H24         1.9950   29.0281   26.2999 H           1 PRO       0.0232
     90 H25         0.1604   27.1100   22.8615 H           1 PRO       0.0232
     91 H26        -0.9157   27.8343   24.0746 H           1 PRO       0.0232
     92 H27         0.0540   26.4035   24.4721 H           1 PRO       0.0232
     93 H28         3.0807   30.6780   20.6815 H           1 PRO       0.1884
     94 H29         4.5814   28.1980   20.2738 H           1 PRO       0.0823
     95 H30         3.0719   28.1358   18.4570 H           1 PRO       0.0606
     96 H31         4.4541   28.9631   17.7563 H           1 PRO       0.0606
     97 H32         3.2211   30.9575   18.5065 H           1 PRO       0.2097
     98 H33         5.0796   30.9435   21.5994 H           1 PRO       0.1859
     99 H34         6.3690   32.5821   21.7302 H           1 PRO       0.0632
    100 H35         7.8646   30.7656   22.4531 H           1 PRO       0.0450
    101 H36         8.6734   32.2240   21.9548 H           1 PRO       0.0450
    102 H37        10.0140   32.2609   19.8450 H           1 PRO       0.0557
    103 H38         8.2804   28.6687   21.2357 H           1 PRO       0.0557
    104 H39        11.3253   31.0106   18.2572 H           1 PRO       0.0599
    105 H40         9.6363   27.4264   19.6740 H           1 PRO       0.0599
    106 H41        11.1407   28.5920   18.1591 H           1 PRO       0.0559
    107 H42         7.8676   32.5656   19.1920 H           1 PRO       0.0839
    108 H43         7.0092   33.8488   20.0181 H           1 PRO       0.0839
    109 H44         4.9907   32.5423   19.1336 H           1 PRO       0.2036
    110 H45         6.0654   31.7855   18.1303 H           1 PRO       0.2036
    111 H46         5.4371   34.6129   18.3051 H           1 PRO       0.1099
    112 H47         7.8475   33.6084   17.2303 H           1 PRO       0.0354
    113 H48         7.2210   35.2093   17.1761 H           1 PRO       0.0354
    114 H49         7.8996   34.8646   15.0454 H           1 PRO       0.0380
    115 H50         6.1714   34.6550   14.9258 H           1 PRO       0.0380
    116 H51         8.6290   30.7507   15.1390 H           1 PRO       0.0340
    117 H52         7.6404   31.3663   16.4764 H           1 PRO       0.0340
    118 H53         9.1505   32.2132   16.0162 H           1 PRO       0.0340
    119 H54         5.4770   32.2906   15.6381 H           1 PRO       0.1884
    120 H55         4.2355   31.9278   13.9552 H           1 PRO       0.0797
    121 H56         1.7814   31.5550   14.2030 H           1 PRO       0.0277
    122 H57         1.8443   32.2237   15.8537 H           1 PRO       0.0277
    123 H58         2.7296   30.7315   15.4500 H           1 PRO       0.0277
    124 H59         3.0283   32.8846   12.2571 H           1 PRO       0.1877
    125 H60         3.4871   35.1390   11.3282 H           1 PRO       0.0750
    126 H61         1.9279   33.4662   10.2947 H           1 PRO       0.0484
    127 H62         1.5216   35.1372    9.9687 H           1 PRO       0.0484
    128 H63        -0.9504   35.5800   10.2955 H           1 PRO       0.2386
    129 H64         0.3540   32.4397   12.5675 H           1 PRO       0.0324
    130 H65        -2.9153   34.6766   11.5445 H           1 PRO       0.1149
@<TRIPOS>BOND
     1     1     2   1
     2     1     7   1
     3     2     3   1
     4     2     5   1
     5     3     4   2
     6     3     8  am
     7     5     6   1
     8     6     7   1
     9     8     9   1
    10     9    10   1
    11     9    12   1
    12    10    11   2
    13    10    18  am
    14    12    13   1
    15    13    14   1
    16    13    15   2
    17    14    16   1
    18    15    17   1
    19    16    17   2
    20    18    19   1
    21    19    20   1
    22    19    22   1
    23    20    21   2
    24    20    26  am
    25    22    23   1
    26    23    24   1
    27    23    25   1
    28    26    27   1
    29    27    28   1
    30    27    30   1
    31    28    29   2
    32    28    32  am
    33    30    31   1
    34    32    33   1
    35    33    34   1
    36    33    41   1
    37    34    35   1
    38    35    36  ar
    39    35    37  ar
    40    36    38  ar
    41    37    39  ar
    42    38    40  ar
    43    39    40  ar
    44    41    42   1
    45    42    43   1
    46    43    44   1
    47    43    48   1
    48    44    45   1
    49    45    46   1
    50    46    47   1
    51    48    49   2
    52    48    50  am
    53    50    51   1
    54    51    52   1
    55    51    54   1
    56    52    53   2
    57    52    55  am
    58    55    56   1
    59    56    57   1
    60    56    59   1
    61    57    58  ar
    62    57    65  ar
    63    59    60   1
    64    60    61   1
    65    60    62   2
    66    61    63   1
    67    62    64   1
    68    63    64   2
    69     1    66   1
    70     1    67   1
    71     2    68   1
    72     5    69   1
    73     5    70   1
    74     6    71   1
    75     6    72   1
    76     7    73   1
    77     7    74   1
    78     8    75   1
    79     9    76   1
    80    12    77   1
    81    12    78   1
    82    14    79   1
    83    15    80   1
    84    16    81   1
    85    18    82   1
    86    19    83   1
    87    22    84   1
    88    22    85   1
    89    23    86   1
    90    24    87   1
    91    24    88   1
    92    24    89   1
    93    25    90   1
    94    25    91   1
    95    25    92   1
    96    26    93   1
    97    27    94   1
    98    30    95   1
    99    30    96   1
   100    31    97   1
   101    32    98   1
   102    33    99   1
   103    34   100   1
   104    34   101   1
   105    36   102   1
   106    37   103   1
   107    38   104   1
   108    39   105   1
   109    40   106   1
   110    41   107   1
   111    41   108   1
   112    42   109   1
   113    42   110   1
   114    43   111   1
   115    44   112   1
   116    44   113   1
   117    45   114   1
   118    45   115   1
   119    47   116   1
   120    47   117   1
   121    47   118   1
   122    50   119   1
   123    51   120   1
   124    54   121   1
   125    54   122   1
   126    54   123   1
   127    55   124   1
   128    56   125   1
   129    59   126   1
   130    59   127   1
   131    61   128   1
   132    62   129   1
   133    63   130   1
@<TRIPOS>SUBSTRUCTURE
     1  PRO      2

