@<TRIPOS>MOLECULE
3uri_ligand_035
   130   133
SMALL
GAST_HUCK
****
This file was generated by PARSER (from files_GN.cpp)

@<TRIPOS>ATOM
      1 N           5.3167   23.1021   27.2541 N.4         1 PRO       0.2461
      2 CA          6.6460   23.1113   26.6135 C.3         1 PRO       0.0670
      3 C           6.9320   24.3589   25.9278 C.2         1 PRO       0.2269
      4 O           6.3653   25.3724   26.3310 O.2         1 PRO      -0.3907
      5 CB          6.6001   21.8361   25.7433 C.3         1 PRO       0.0127
      6 CG          5.7775   20.8330   26.5784 C.3         1 PRO      -0.0053
      7 CD          4.9647   21.7050   27.5589 C.3         1 PRO      -0.0313
      8 N           7.8761   24.4553   24.9909 N.am        1 PRO      -0.2592
      9 CA          8.2482   25.6412   24.2576 C.3         1 PRO       0.1422
     10 C           7.0952   26.1475   23.5255 C.2         1 PRO       0.2060
     11 O           6.6470   27.2660   23.8089 O.2         1 PRO      -0.3942
     12 CB          9.4575   25.3357   23.3207 C.3         1 PRO       0.0427
     13 CG         10.6880   24.9307   24.0193 C.2         1 PRO       0.0561
     14 ND1        11.3095   23.7478   23.9247 N.pl3       1 PRO      -0.2623
     15 CD2        11.5035   25.7330   24.8223 C.2         1 PRO      -0.0276
     16 CE1        12.4483   23.8012   24.6317 C.2         1 PRO       0.0875
     17 NE2        12.5782   25.0170   25.1904 N.2         1 PRO      -0.3437
     18 N           6.4942   25.4087   22.5909 N.am        1 PRO      -0.2636
     19 CA          5.3505   25.7296   21.7848 C.3         1 PRO       0.1312
     20 C           5.6589   26.6889   20.7268 C.2         1 PRO       0.2040
     21 O           6.6083   26.4355   19.9744 O.2         1 PRO      -0.3944
     22 CB          4.0985   26.0569   22.6723 C.3         1 PRO      -0.0101
     23 CG          3.7003   24.9789   23.7311 C.3         1 PRO      -0.0425
     24 CD1         2.4101   25.4113   24.4786 C.3         1 PRO      -0.0625
     25 CD2         3.5207   23.5581   23.1279 C.3         1 PRO      -0.0625
     26 N           5.0118   27.8502   20.5887 N.am        1 PRO      -0.2616
     27 CA          5.1824   28.8433   19.5630 C.3         1 PRO       0.1538
     28 C           5.8865   29.9666   20.1565 C.2         1 PRO       0.2045
     29 O           7.1058   29.8851   20.2625 O.2         1 PRO      -0.3944
     30 CB          3.7835   29.1407   18.9419 C.3         1 PRO       0.0843
     31 OG          3.8403   30.1892   17.9734 O.3         1 PRO      -0.3903
     32 N           5.2448   31.0413   20.6108 N.am        1 PRO      -0.2748
     33 C1          5.8008   32.2613   21.1103 C.3         1 PRO       0.0911
     34 C2          6.5044   32.1102   22.5032 C.3         1 PRO       0.0089
     35 C3          5.7528   31.3368   23.5331 C.ar        1 PRO      -0.0406
     36 C4          6.4585   30.5836   24.5119 C.ar        1 PRO      -0.0603
     37 C5          4.3378   31.3845   23.6176 C.ar        1 PRO      -0.0603
     38 C6          5.7667   29.9070   25.5301 C.ar        1 PRO      -0.0686
     39 C7          3.6500   30.6803   24.6216 C.ar        1 PRO      -0.0686
     40 C8          4.3631   29.9421   25.5829 C.ar        1 PRO      -0.0687
     41 C9          6.6961   32.9988   20.0634 C.3         1 PRO      -0.0062
     42 N2          6.1147   32.8787   18.7011 N.4         1 PRO       0.2479
     43 C10         6.5922   33.7955   17.6323 C.3         1 PRO       0.0676
     44 C11         8.1523   33.7940   17.4719 C.3         1 PRO       0.0169
     45 C12         8.8071   32.4859   16.9512 C.3         1 PRO       0.0007
     46 SD          9.2223   31.2573   18.2216 S.3         1 PRO      -0.1638
     47 C13        10.8233   31.9125   18.7535 C.3         1 PRO      -0.0181
     48 C           5.8847   33.5421   16.3654 C.2         1 PRO       0.2268
     49 O           5.0161   32.6747   16.3032 O.2         1 PRO      -0.3907
     50 N           6.1775   34.2469   15.2644 N.am        1 PRO      -0.2613
     51 CA          5.6199   34.1357   13.9398 C.3         1 PRO       0.1283
     52 C           4.2573   34.6485   13.8065 C.2         1 PRO       0.2032
     53 O           3.6596   35.0473   14.8013 O.2         1 PRO      -0.3944
     54 CB          5.8192   32.7056   13.3506 C.3         1 PRO      -0.0244
     55 N           3.7696   34.9183   12.5981 N.am        1 PRO      -0.2677
     56 CA          2.6900   35.8026   12.2680 C.3         1 PRO       0.1056
     57 C           1.5896   35.8034   13.2529 C.2         1 PRO       0.0621
     58 O           1.1016   34.6459   13.7561 O.co2       1 PRO      -0.5664
     59 CB          2.1871   35.5387   10.8092 C.3         1 PRO       0.0372
     60 CG          1.2081   34.4429   10.6573 C.2         1 PRO       0.0555
     61 ND1         0.1206   34.4597    9.8793 N.pl3       1 PRO      -0.2623
     62 CD2         1.1450   33.2470   11.3790 C.2         1 PRO      -0.0276
     63 CE1        -0.5773   33.3327   10.0788 C.2         1 PRO       0.0875
     64 NE2         0.0492   32.5791   11.0010 N.2         1 PRO      -0.3437
     65 OXT         1.1198   36.9606   13.7629 O.co2       1 PRO      -0.5664
     66 H1          4.6243   23.4833   26.5986 H           1 PRO       0.2035
     67 H2          5.3233   23.6647   28.1084 H           1 PRO       0.2035
     68 H3          7.4006   22.9831   27.3949 H           1 PRO       0.1099
     69 H4          7.5993   21.4499   25.5354 H           1 PRO       0.0347
     70 H5          6.0822   22.0289   24.7982 H           1 PRO       0.0347
     71 H6          6.4392   20.1595   27.1332 H           1 PRO       0.0320
     72 H7          5.1181   20.2350   25.9402 H           1 PRO       0.0320
     73 H8          3.8924   21.5620   27.4305 H           1 PRO       0.0814
     74 H9          5.2358   21.4815   28.5946 H           1 PRO       0.0814
     75 H10         8.3799   23.6478   24.7974 H           1 PRO       0.1886
     76 H11         8.5808   26.4029   24.9743 H           1 PRO       0.0824
     77 H12         9.6914   26.2209   22.7281 H           1 PRO       0.0491
     78 H13         9.1850   24.5387   22.6248 H           1 PRO       0.0491
     79 H14        10.9962   22.9859   23.4138 H           1 PRO       0.2386
     80 H15        11.3304   26.7143   25.0610 H           1 PRO       0.0324
     81 H16        13.1149   23.0373   24.7184 H           1 PRO       0.1149
     82 H17         6.8914   24.5404   22.4202 H           1 PRO       0.1883
     83 H18         5.1072   24.8074   21.2475 H           1 PRO       0.0800
     84 H19         3.2455   26.2175   22.0103 H           1 PRO       0.0315
     85 H20         4.2979   26.9924   23.1984 H           1 PRO       0.0315
     86 H21         4.4994   24.9248   24.4800 H           1 PRO       0.0298
     87 H22         2.1684   24.6981   25.2693 H           1 PRO       0.0232
     88 H23         1.5633   25.4666   23.7909 H           1 PRO       0.0232
     89 H24         2.5462   26.3906   24.9412 H           1 PRO       0.0232
     90 H25         4.4639   23.1844   22.7289 H           1 PRO       0.0232
     91 H26         2.7793   23.5709   22.3268 H           1 PRO       0.0232
     92 H27         3.1903   22.8556   23.8966 H           1 PRO       0.0232
     93 H28         4.3226   28.0390   21.2559 H           1 PRO       0.1884
     94 H29         5.7911   28.4508   18.7360 H           1 PRO       0.0823
     95 H30         3.0572   29.4132   19.7165 H           1 PRO       0.0606
     96 H31         3.4136   28.2436   18.4344 H           1 PRO       0.0606
     97 H32         3.5180   30.9940   18.4301 H           1 PRO       0.2097
     98 H33         4.2764   31.0086   20.5470 H           1 PRO       0.1859
     99 H34         4.9354   32.9119   21.2653 H           1 PRO       0.0632
    100 H35         6.6686   33.1116   22.9050 H           1 PRO       0.0450
    101 H36         7.4915   31.6659   22.3486 H           1 PRO       0.0450
    102 H37         7.4789   30.5439   24.4968 H           1 PRO       0.0557
    103 H38         3.7957   31.9372   22.9477 H           1 PRO       0.0557
    104 H39         6.2893   29.3964   26.2454 H           1 PRO       0.0599
    105 H40         2.6275   30.7133   24.6615 H           1 PRO       0.0599
    106 H41         3.8604   29.4413   26.3220 H           1 PRO       0.0559
    107 H42         7.6918   32.5653   20.0768 H           1 PRO       0.0839
    108 H43         6.7738   34.0476   20.3537 H           1 PRO       0.0839
    109 H44         5.1086   33.0193   18.8003 H           1 PRO       0.2036
    110 H45         6.2660   31.9196   18.3843 H           1 PRO       0.2036
    111 H46         6.3001   34.8073   17.9276 H           1 PRO       0.1099
    112 H47         8.6018   34.0822   18.4157 H           1 PRO       0.0354
    113 H48         8.4158   34.5910   16.7815 H           1 PRO       0.0354
    114 H49         9.7226   32.7294   16.4076 H           1 PRO       0.0380
    115 H50         8.1390   31.9946   16.2378 H           1 PRO       0.0380
    116 H51        11.2483   31.2451   19.5006 H           1 PRO       0.0340
    117 H52        10.7089   32.8993   19.2003 H           1 PRO       0.0340
    118 H53        11.5115   31.9750   17.9108 H           1 PRO       0.0340
    119 H54         6.8668   34.9273   15.3718 H           1 PRO       0.1884
    120 H55         6.2326   34.8057   13.3284 H           1 PRO       0.0797
    121 H56         5.6929   32.7179   12.2659 H           1 PRO       0.0277
    122 H57         5.1022   31.9961   13.7731 H           1 PRO       0.0277
    123 H58         6.8318   32.3531   13.5620 H           1 PRO       0.0277
    124 H59         4.2770   34.5686   11.8492 H           1 PRO       0.1877
    125 H60         3.1154   36.8112   12.2583 H           1 PRO       0.0750
    126 H61         3.0494   35.3243   10.1668 H           1 PRO       0.0484
    127 H62         1.7314   36.4635   10.4390 H           1 PRO       0.0484
    128 H63        -0.1302   35.1767    9.2731 H           1 PRO       0.2386
    129 H64         1.8107   32.9312   12.0812 H           1 PRO       0.0324
    130 H65        -1.4550   33.0910    9.6270 H           1 PRO       0.1149
@<TRIPOS>BOND
     1     1     2   1
     2     1     7   1
     3     2     3   1
     4     2     5   1
     5     3     4   2
     6     3     8  am
     7     5     6   1
     8     6     7   1
     9     8     9   1
    10     9    10   1
    11     9    12   1
    12    10    11   2
    13    10    18  am
    14    12    13   1
    15    13    14   1
    16    13    15   2
    17    14    16   1
    18    15    17   1
    19    16    17   2
    20    18    19   1
    21    19    20   1
    22    19    22   1
    23    20    21   2
    24    20    26  am
    25    22    23   1
    26    23    24   1
    27    23    25   1
    28    26    27   1
    29    27    28   1
    30    27    30   1
    31    28    29   2
    32    28    32  am
    33    30    31   1
    34    32    33   1
    35    33    34   1
    36    33    41   1
    37    34    35   1
    38    35    36  ar
    39    35    37  ar
    40    36    38  ar
    41    37    39  ar
    42    38    40  ar
    43    39    40  ar
    44    41    42   1
    45    42    43   1
    46    43    44   1
    47    43    48   1
    48    44    45   1
    49    45    46   1
    50    46    47   1
    51    48    49   2
    52    48    50  am
    53    50    51   1
    54    51    52   1
    55    51    54   1
    56    52    53   2
    57    52    55  am
    58    55    56   1
    59    56    57   1
    60    56    59   1
    61    57    58  ar
    62    57    65  ar
    63    59    60   1
    64    60    61   1
    65    60    62   2
    66    61    63   1
    67    62    64   1
    68    63    64   2
    69     1    66   1
    70     1    67   1
    71     2    68   1
    72     5    69   1
    73     5    70   1
    74     6    71   1
    75     6    72   1
    76     7    73   1
    77     7    74   1
    78     8    75   1
    79     9    76   1
    80    12    77   1
    81    12    78   1
    82    14    79   1
    83    15    80   1
    84    16    81   1
    85    18    82   1
    86    19    83   1
    87    22    84   1
    88    22    85   1
    89    23    86   1
    90    24    87   1
    91    24    88   1
    92    24    89   1
    93    25    90   1
    94    25    91   1
    95    25    92   1
    96    26    93   1
    97    27    94   1
    98    30    95   1
    99    30    96   1
   100    31    97   1
   101    32    98   1
   102    33    99   1
   103    34   100   1
   104    34   101   1
   105    36   102   1
   106    37   103   1
   107    38   104   1
   108    39   105   1
   109    40   106   1
   110    41   107   1
   111    41   108   1
   112    42   109   1
   113    42   110   1
   114    43   111   1
   115    44   112   1
   116    44   113   1
   117    45   114   1
   118    45   115   1
   119    47   116   1
   120    47   117   1
   121    47   118   1
   122    50   119   1
   123    51   120   1
   124    54   121   1
   125    54   122   1
   126    54   123   1
   127    55   124   1
   128    56   125   1
   129    59   126   1
   130    59   127   1
   131    61   128   1
   132    62   129   1
   133    63   130   1
@<TRIPOS>SUBSTRUCTURE
     1  PRO      2

