@<TRIPOS>MOLECULE
3uri_ligand_014
   130   133
SMALL
GAST_HUCK
****
This file was generated by PARSER (from files_GN.cpp)

@<TRIPOS>ATOM
      1 N          -9.3077   24.8729   19.1726 N.4         1 PRO       0.2461
      2 CA         -7.9348   24.7964   18.6413 C.3         1 PRO       0.0670
      3 C          -7.1410   25.9781   18.9403 C.2         1 PRO       0.2269
      4 O          -7.4624   27.0534   18.4407 O.2         1 PRO      -0.3907
      5 CB         -8.1606   24.5276   17.1334 C.3         1 PRO       0.0127
      6 CG         -9.4144   23.6365   17.0979 C.3         1 PRO      -0.0053
      7 CD        -10.1169   23.8784   18.4518 C.3         1 PRO      -0.0313
      8 N          -6.0685   25.8832   19.7214 N.am        1 PRO      -0.2592
      9 CA         -5.1425   26.9328   20.0558 C.3         1 PRO       0.1422
     10 C          -4.2452   27.2720   18.9528 C.2         1 PRO       0.2060
     11 O          -4.2149   26.5719   17.9448 O.2         1 PRO      -0.3942
     12 CB         -4.3191   26.5261   21.3181 C.3         1 PRO       0.0427
     13 CG         -5.1280   26.4792   22.5480 C.2         1 PRO       0.0561
     14 ND1        -6.0096   25.5280   22.8771 N.pl3       1 PRO      -0.2623
     15 CD2        -5.1146   27.3803   23.6105 C.2         1 PRO      -0.0276
     16 CE1        -6.5279   25.8224   24.0779 C.2         1 PRO       0.0875
     17 NE2        -5.9852   26.9586   24.5392 N.2         1 PRO      -0.3437
     18 N          -3.4442   28.3276   19.0786 N.am        1 PRO      -0.2636
     19 CA         -2.5345   28.8751   18.1092 C.3         1 PRO       0.1312
     20 C          -1.1784   28.4642   18.4669 C.2         1 PRO       0.2040
     21 O          -0.7718   28.7293   19.5960 O.2         1 PRO      -0.3944
     22 CB         -2.6535   30.4374   18.0008 C.3         1 PRO      -0.0101
     23 CG         -3.9792   31.1338   18.4637 C.3         1 PRO      -0.0425
     24 CD1        -3.8558   32.6805   18.3435 C.3         1 PRO      -0.0625
     25 CD2        -5.2400   30.6435   17.6994 C.3         1 PRO      -0.0625
     26 N          -0.3782   27.8682   17.5854 N.am        1 PRO      -0.2616
     27 CA          0.9936   27.4616   17.7792 C.3         1 PRO       0.1538
     28 C           1.8620   28.3110   16.9645 C.2         1 PRO       0.2045
     29 O           2.5180   27.8350   16.0453 O.2         1 PRO      -0.3944
     30 CB          1.1295   25.9309   17.5283 C.3         1 PRO       0.0843
     31 OG          0.7847   25.5563   16.2001 O.3         1 PRO      -0.3903
     32 N           2.0253   29.5768   17.3297 N.am        1 PRO      -0.2748
     33 C1          2.9791   30.5242   16.8151 C.3         1 PRO       0.0911
     34 C2          2.3241   31.9416   16.7574 C.3         1 PRO       0.0089
     35 C3          1.3393   32.0936   15.6511 C.ar        1 PRO      -0.0406
     36 C4         -0.0390   32.2849   15.9149 C.ar        1 PRO      -0.0603
     37 C5          1.7759   32.0993   14.3047 C.ar        1 PRO      -0.0603
     38 C6         -0.9588   32.4552   14.8618 C.ar        1 PRO      -0.0686
     39 C7          0.8549   32.2629   13.2509 C.ar        1 PRO      -0.0686
     40 C8         -0.5110   32.4472   13.5299 C.ar        1 PRO      -0.0687
     41 C9          4.2426   30.4841   17.7220 C.3         1 PRO      -0.0062
     42 N2          5.0733   29.2926   17.4071 N.4         1 PRO       0.2479
     43 C10         6.2751   28.9868   18.2241 C.3         1 PRO       0.0676
     44 C11         7.2238   30.2221   18.4130 C.3         1 PRO       0.0169
     45 C12         8.6637   29.8519   18.8651 C.3         1 PRO       0.0007
     46 SD          9.6646   31.3053   19.3036 S.3         1 PRO      -0.1638
     47 C13         9.0977   31.5265   21.0089 C.3         1 PRO      -0.0181
     48 C           5.9070   28.2845   19.4519 C.2         1 PRO       0.2268
     49 O           6.0241   28.8319   20.5429 O.2         1 PRO      -0.3907
     50 N           5.4924   27.0245   19.3760 N.am        1 PRO      -0.2613
     51 CA          5.2785   26.1382   20.4912 C.3         1 PRO       0.1283
     52 C           6.5168   25.7617   21.1658 C.2         1 PRO       0.2032
     53 O           7.5957   25.9043   20.6050 O.2         1 PRO      -0.3944
     54 CB          4.5237   24.8835   19.9944 C.3         1 PRO      -0.0244
     55 N           6.4574   25.2151   22.3764 N.am        1 PRO      -0.2677
     56 CA          7.5686   24.8021   23.2021 C.3         1 PRO       0.1056
     57 C           7.0743   24.1060   24.4159 C.2         1 PRO       0.0621
     58 O           5.7577   24.0259   24.7292 O.co2       1 PRO      -0.5664
     59 CB          8.5268   25.9867   23.5699 C.3         1 PRO       0.0372
     60 CG          7.8232   27.2209   23.9698 C.2         1 PRO       0.0555
     61 ND1         6.9666   27.3608   24.9957 N.pl3       1 PRO      -0.2623
     62 CD2         7.8741   28.4623   23.3366 C.2         1 PRO      -0.0276
     63 CE1         6.5091   28.6199   24.9990 C.2         1 PRO       0.0875
     64 NE2         7.0558   29.3074   23.9818 N.2         1 PRO      -0.3437
     65 OXT         7.9432   23.4679   25.2356 O.co2       1 PRO      -0.5664
     66 H1         -9.6859   25.8040   18.9861 H           1 PRO       0.2035
     67 H2         -9.3221   24.6905   20.1777 H           1 PRO       0.2035
     68 H3         -7.4607   23.9035   19.0719 H           1 PRO       0.1099
     69 H4         -7.2969   24.0311   16.6809 H           1 PRO       0.0347
     70 H5         -8.3616   25.4579   16.5919 H           1 PRO       0.0347
     71 H6         -9.1248   22.5840   17.0024 H           1 PRO       0.0320
     72 H7        -10.0586   23.9017   16.2556 H           1 PRO       0.0320
     73 H8        -11.1321   24.2578   18.3153 H           1 PRO       0.0814
     74 H9        -10.1606   22.9507   19.0315 H           1 PRO       0.0814
     75 H10        -5.9192   25.0159   20.1258 H           1 PRO       0.1886
     76 H11        -5.7136   27.8372   20.2965 H           1 PRO       0.0824
     77 H12        -3.5074   27.2375   21.4798 H           1 PRO       0.0491
     78 H13        -3.8596   25.5481   21.1568 H           1 PRO       0.0491
     79 H14        -6.2232   24.7541   22.3411 H           1 PRO       0.2386
     80 H15        -4.5413   28.2218   23.6798 H           1 PRO       0.0324
     81 H16        -7.2208   25.2586   24.5725 H           1 PRO       0.1149
     82 H17        -3.4856   28.8084   19.9250 H           1 PRO       0.1883
     83 H18        -2.7795   28.4759   17.1163 H           1 PRO       0.0800
     84 H19        -2.4831   30.7089   16.9499 H           1 PRO       0.0315
     85 H20        -1.8407   30.9097   18.5737 H           1 PRO       0.0315
     86 H21        -4.1293   30.9155   19.5209 H           1 PRO       0.0298
     87 H22        -4.7464   33.1697   18.7478 H           1 PRO       0.0232
     88 H23        -3.7340   32.9868   17.2973 H           1 PRO       0.0232
     89 H24        -2.9932   33.0376   18.9111 H           1 PRO       0.0232
     90 H25        -5.3636   29.5658   17.7958 H           1 PRO       0.0232
     91 H26        -5.1755   30.8908   16.6351 H           1 PRO       0.0232
     92 H27        -6.1392   31.1127   18.1110 H           1 PRO       0.0232
     93 H28        -0.7511   27.7124   16.7009 H           1 PRO       0.1884
     94 H29         1.3000   27.6081   18.8227 H           1 PRO       0.0823
     95 H30         0.4788   25.3839   18.2182 H           1 PRO       0.0606
     96 H31         2.1620   25.6205   17.7114 H           1 PRO       0.0606
     97 H32        -0.1774   25.7039   16.1458 H           1 PRO       0.2097
     98 H33         1.5230   29.8609   18.1097 H           1 PRO       0.1859
     99 H34         3.2932   30.2527   15.7956 H           1 PRO       0.0632
    100 H35         3.0936   32.7007   16.6111 H           1 PRO       0.0450
    101 H36         1.8609   32.1528   17.7225 H           1 PRO       0.0450
    102 H37        -0.3812   32.2988   16.8786 H           1 PRO       0.0557
    103 H38         2.7653   31.9893   14.0784 H           1 PRO       0.0557
    104 H39        -1.9472   32.5932   15.0655 H           1 PRO       0.0599
    105 H40         1.1856   32.2579   12.2775 H           1 PRO       0.0599
    106 H41        -1.1759   32.5762   12.7647 H           1 PRO       0.0559
    107 H42         3.9596   30.4826   18.7752 H           1 PRO       0.0839
    108 H43         4.8411   31.3763   17.5306 H           1 PRO       0.0839
    109 H44         5.3895   29.4031   16.4421 H           1 PRO       0.2036
    110 H45         4.4667   28.4724   17.4362 H           1 PRO       0.2036
    111 H46         6.8538   28.2766   17.6263 H           1 PRO       0.1099
    112 H47         6.7757   30.9107   19.1340 H           1 PRO       0.0354
    113 H48         7.3003   30.7534   17.4625 H           1 PRO       0.0354
    114 H49         9.1719   29.3536   18.0331 H           1 PRO       0.0380
    115 H50         8.6463   29.1566   19.7103 H           1 PRO       0.0380
    116 H51         9.6264   32.3759   21.4515 H           1 PRO       0.0340
    117 H52         9.3123   30.6267   21.5946 H           1 PRO       0.0340
    118 H53         8.0243   31.7343   21.0320 H           1 PRO       0.0340
    119 H54         5.3836   26.6404   18.4867 H           1 PRO       0.1884
    120 H55         4.6267   26.6487   21.2021 H           1 PRO       0.0797
    121 H56         4.2615   24.2373   20.8326 H           1 PRO       0.0277
    122 H57         5.1417   24.3172   19.2959 H           1 PRO       0.0277
    123 H58         3.6034   25.1750   19.4846 H           1 PRO       0.0277
    124 H59         5.5710   25.0870   22.7484 H           1 PRO       0.1877
    125 H60         8.1458   24.0594   22.6397 H           1 PRO       0.0750
    126 H61         9.1550   26.2046   22.7008 H           1 PRO       0.0484
    127 H62         9.2012   25.6919   24.3799 H           1 PRO       0.0484
    128 H63         6.7103   26.6666   25.6181 H           1 PRO       0.2386
    129 H64         8.4256   28.6973   22.5047 H           1 PRO       0.0324
    130 H65         5.8330   29.0043   25.6699 H           1 PRO       0.1149
@<TRIPOS>BOND
     1     1     2   1
     2     1     7   1
     3     2     3   1
     4     2     5   1
     5     3     4   2
     6     3     8  am
     7     5     6   1
     8     6     7   1
     9     8     9   1
    10     9    10   1
    11     9    12   1
    12    10    11   2
    13    10    18  am
    14    12    13   1
    15    13    14   1
    16    13    15   2
    17    14    16   1
    18    15    17   1
    19    16    17   2
    20    18    19   1
    21    19    20   1
    22    19    22   1
    23    20    21   2
    24    20    26  am
    25    22    23   1
    26    23    24   1
    27    23    25   1
    28    26    27   1
    29    27    28   1
    30    27    30   1
    31    28    29   2
    32    28    32  am
    33    30    31   1
    34    32    33   1
    35    33    34   1
    36    33    41   1
    37    34    35   1
    38    35    36  ar
    39    35    37  ar
    40    36    38  ar
    41    37    39  ar
    42    38    40  ar
    43    39    40  ar
    44    41    42   1
    45    42    43   1
    46    43    44   1
    47    43    48   1
    48    44    45   1
    49    45    46   1
    50    46    47   1
    51    48    49   2
    52    48    50  am
    53    50    51   1
    54    51    52   1
    55    51    54   1
    56    52    53   2
    57    52    55  am
    58    55    56   1
    59    56    57   1
    60    56    59   1
    61    57    58  ar
    62    57    65  ar
    63    59    60   1
    64    60    61   1
    65    60    62   2
    66    61    63   1
    67    62    64   1
    68    63    64   2
    69     1    66   1
    70     1    67   1
    71     2    68   1
    72     5    69   1
    73     5    70   1
    74     6    71   1
    75     6    72   1
    76     7    73   1
    77     7    74   1
    78     8    75   1
    79     9    76   1
    80    12    77   1
    81    12    78   1
    82    14    79   1
    83    15    80   1
    84    16    81   1
    85    18    82   1
    86    19    83   1
    87    22    84   1
    88    22    85   1
    89    23    86   1
    90    24    87   1
    91    24    88   1
    92    24    89   1
    93    25    90   1
    94    25    91   1
    95    25    92   1
    96    26    93   1
    97    27    94   1
    98    30    95   1
    99    30    96   1
   100    31    97   1
   101    32    98   1
   102    33    99   1
   103    34   100   1
   104    34   101   1
   105    36   102   1
   106    37   103   1
   107    38   104   1
   108    39   105   1
   109    40   106   1
   110    41   107   1
   111    41   108   1
   112    42   109   1
   113    42   110   1
   114    43   111   1
   115    44   112   1
   116    44   113   1
   117    45   114   1
   118    45   115   1
   119    47   116   1
   120    47   117   1
   121    47   118   1
   122    50   119   1
   123    51   120   1
   124    54   121   1
   125    54   122   1
   126    54   123   1
   127    55   124   1
   128    56   125   1
   129    59   126   1
   130    59   127   1
   131    61   128   1
   132    62   129   1
   133    63   130   1
@<TRIPOS>SUBSTRUCTURE
     1  PRO      2

