@<TRIPOS>MOLECULE
3uri_ligand_018
   130   133
SMALL
GAST_HUCK
****
This file was generated by PARSER (from files_GN.cpp)

@<TRIPOS>ATOM
      1 N           8.0291   26.3393   20.1857 N.4         1 PRO       0.2461
      2 CA          6.5933   26.4977   19.8697 C.3         1 PRO       0.0670
      3 C           6.3036   27.5719   18.9288 C.2         1 PRO       0.2269
      4 O           7.1933   28.0099   18.2077 O.2         1 PRO      -0.3907
      5 CB          5.9212   26.6686   21.2497 C.3         1 PRO       0.0127
      6 CG          6.7643   25.7728   22.1684 C.3         1 PRO      -0.0053
      7 CD          8.1781   25.8615   21.5695 C.3         1 PRO      -0.0313
      8 N           5.0661   28.0458   18.8389 N.am        1 PRO      -0.2592
      9 CA          4.5991   29.0825   17.9550 C.3         1 PRO       0.1422
     10 C           5.1591   30.3866   18.3174 C.2         1 PRO       0.2060
     11 O           5.1320   30.7384   19.4913 O.2         1 PRO      -0.3942
     12 CB          3.0383   29.1382   17.9402 C.3         1 PRO       0.0427
     13 CG          2.4184   27.9119   17.3960 C.2         1 PRO       0.0561
     14 ND1         2.2408   26.7542   18.0468 N.pl3       1 PRO      -0.2623
     15 CD2         1.9208   27.7150   16.1105 C.2         1 PRO      -0.0276
     16 CE1         1.6766   25.8754   17.2064 C.2         1 PRO       0.0875
     17 NE2         1.4874   26.4483   16.0084 N.2         1 PRO      -0.3437
     18 N           5.6466   31.1941   17.3755 N.am        1 PRO      -0.2636
     19 CA          6.0976   32.5506   17.5630 C.3         1 PRO       0.1312
     20 C           6.3947   33.1346   16.2502 C.2         1 PRO       0.2040
     21 O           7.5375   33.4787   15.9547 O.2         1 PRO      -0.3944
     22 CB          7.2205   32.7300   18.6536 C.3         1 PRO      -0.0101
     23 CG          8.1585   31.5252   18.9893 C.3         1 PRO      -0.0425
     24 CD1         8.8350   30.8758   17.7535 C.3         1 PRO      -0.0625
     25 CD2         9.2428   31.9476   20.0251 C.3         1 PRO      -0.0625
     26 N           5.4061   33.3237   15.3785 N.am        1 PRO      -0.2616
     27 CA          5.4717   33.9739   14.0890 C.3         1 PRO       0.1538
     28 C           4.3396   34.8718   13.8539 C.2         1 PRO       0.2045
     29 O           3.5646   35.1185   14.7808 O.2         1 PRO      -0.3944
     30 CB          5.6550   32.8720   13.0082 C.3         1 PRO       0.0843
     31 OG          4.5598   31.9648   12.9651 O.3         1 PRO      -0.3903
     32 N           4.1576   35.4720   12.6829 N.am        1 PRO      -0.2748
     33 C1          3.2363   36.5296   12.3320 C.3         1 PRO       0.0911
     34 C2          1.7393   36.2972   12.7128 C.3         1 PRO       0.0089
     35 C3          1.0949   35.2469   11.8859 C.ar        1 PRO      -0.0406
     36 C4          0.5576   35.5741   10.6171 C.ar        1 PRO      -0.0603
     37 C5          1.0195   33.9074   12.3305 C.ar        1 PRO      -0.0603
     38 C6         -0.0399   34.5889    9.8127 C.ar        1 PRO      -0.0686
     39 C7          0.4269   32.9156   11.5226 C.ar        1 PRO      -0.0686
     40 C8         -0.1024   33.2565   10.2640 C.ar        1 PRO      -0.0687
     41 C9          3.7635   37.9166   12.8160 C.3         1 PRO      -0.0062
     42 N2          4.9878   38.3163   12.0616 N.4         1 PRO       0.2479
     43 C10         5.0725   39.6412   11.3729 C.3         1 PRO       0.0676
     44 C11         4.3411   39.7058    9.9825 C.3         1 PRO       0.0169
     45 C12         2.8080   39.4334    9.8589 C.3         1 PRO       0.0007
     46 SD          1.7524   40.8858   10.1418 S.3         1 PRO      -0.1638
     47 C13         0.2016   40.0159   10.4511 C.3         1 PRO      -0.0181
     48 C           4.8945   40.7724   12.2843 C.2         1 PRO       0.2268
     49 O           5.8961   41.2349   12.8287 O.2         1 PRO      -0.3907
     50 N           3.6982   41.2255   12.6237 N.am        1 PRO      -0.2613
     51 CA          3.3880   42.2385   13.5966 C.3         1 PRO       0.1283
     52 C           1.9395   42.3365   13.7125 C.2         1 PRO       0.2032
     53 O           1.2926   42.8292   12.7932 O.2         1 PRO      -0.3944
     54 CB          4.0022   43.6265   13.2637 C.3         1 PRO      -0.0244
     55 N           1.3251   41.8607   14.7916 N.am        1 PRO      -0.2677
     56 CA         -0.0846   41.8473   15.0782 C.3         1 PRO       0.1056
     57 C          -0.7840   40.9324   14.1424 C.2         1 PRO       0.0621
     58 O          -1.6602   41.3746   13.2099 O.co2       1 PRO      -0.5664
     59 CB         -0.7167   43.2722   15.1703 C.3         1 PRO       0.0372
     60 CG         -0.0241   44.1454   16.1377 C.2         1 PRO       0.0555
     61 ND1         1.0967   44.8413   15.9025 N.pl3       1 PRO      -0.2623
     62 CD2        -0.3774   44.4071   17.4598 C.2         1 PRO      -0.0276
     63 CE1         1.4279   45.5022   17.0224 C.2         1 PRO       0.0875
     64 NE2         0.5300   45.2434   17.9862 N.2         1 PRO      -0.3437
     65 OXT        -0.4707   39.6162   14.1450 O.co2       1 PRO      -0.5664
     66 H1          8.5003   27.2435   20.1034 H           1 PRO       0.2035
     67 H2          8.4543   25.6788   19.5334 H           1 PRO       0.2035
     68 H3          6.2432   25.5594   19.4238 H           1 PRO       0.1099
     69 H4          4.8749   26.3509   21.2352 H           1 PRO       0.0347
     70 H5          5.9758   27.7084   21.5879 H           1 PRO       0.0347
     71 H6          6.4023   24.7420   22.1240 H           1 PRO       0.0320
     72 H7          6.7408   26.1169   23.2046 H           1 PRO       0.0320
     73 H8          8.7836   26.5805   22.1245 H           1 PRO       0.0814
     74 H9          8.6767   24.8912   21.5851 H           1 PRO       0.0814
     75 H10         4.4063   27.6429   19.4256 H           1 PRO       0.1886
     76 H11         4.9185   28.8141   16.9410 H           1 PRO       0.0824
     77 H12         2.7208   29.9867   17.3261 H           1 PRO       0.0491
     78 H13         2.6492   29.3024   18.9492 H           1 PRO       0.0491
     79 H14         2.4789   26.5776   18.9693 H           1 PRO       0.2386
     80 H15         1.9208   28.4026   15.3546 H           1 PRO       0.0324
     81 H16         1.4462   24.9087   17.4383 H           1 PRO       0.1149
     82 H17         5.6360   30.8583   16.4592 H           1 PRO       0.1883
     83 H18         5.2361   33.1227   17.9301 H           1 PRO       0.0800
     84 H19         6.7158   32.9909   19.5885 H           1 PRO       0.0315
     85 H20         7.8364   33.6014   18.4019 H           1 PRO       0.0315
     86 H21         7.5440   30.7565   19.4677 H           1 PRO       0.0298
     87 H22         9.4462   30.0306   18.0799 H           1 PRO       0.0232
     88 H23         9.4759   31.5970   17.2370 H           1 PRO       0.0232
     89 H24         8.0848   30.4993   17.0537 H           1 PRO       0.0232
     90 H25         8.7846   32.4076   20.9043 H           1 PRO       0.0232
     91 H26         9.9366   32.6654   19.5807 H           1 PRO       0.0232
     92 H27         9.8100   31.0760   20.3592 H           1 PRO       0.0232
     93 H28         4.5285   32.9872   15.6348 H           1 PRO       0.1884
     94 H29         6.3563   34.6159   14.0487 H           1 PRO       0.0823
     95 H30         6.5535   32.2983   13.2384 H           1 PRO       0.0606
     96 H31         5.7984   33.3035   12.0175 H           1 PRO       0.0606
     97 H32         3.9777   32.2712   12.2417 H           1 PRO       0.2097
     98 H33         4.7663   35.2103   11.9688 H           1 PRO       0.1859
     99 H34         3.2606   36.5635   11.2410 H           1 PRO       0.0632
    100 H35         1.1781   37.2266   12.5707 H           1 PRO       0.0450
    101 H36         1.6458   36.0593   13.7723 H           1 PRO       0.0450
    102 H37         0.6010   36.5352   10.2699 H           1 PRO       0.0557
    103 H38         1.4035   33.6398   13.2408 H           1 PRO       0.0557
    104 H39        -0.4242   34.8362    8.8973 H           1 PRO       0.0599
    105 H40         0.3829   31.9463   11.8502 H           1 PRO       0.0599
    106 H41        -0.5329   32.5405    9.6769 H           1 PRO       0.0559
    107 H42         4.0147   37.8599   13.8797 H           1 PRO       0.0839
    108 H43         2.9871   38.6769   12.7196 H           1 PRO       0.0839
    109 H44         5.1656   37.6056   11.3420 H           1 PRO       0.2036
    110 H45         5.7673   38.2746   12.7260 H           1 PRO       0.2036
    111 H46         6.1297   39.6788   11.0750 H           1 PRO       0.1099
    112 H47         4.8309   38.9546    9.3495 H           1 PRO       0.0354
    113 H48         4.5566   40.6771    9.5245 H           1 PRO       0.0354
    114 H49         2.5206   38.6158   10.5087 H           1 PRO       0.0380
    115 H50         2.5923   39.1119    8.8358 H           1 PRO       0.0380
    116 H51        -0.5849   40.7490   10.6248 H           1 PRO       0.0340
    117 H52         0.3043   39.3927   11.3392 H           1 PRO       0.0340
    118 H53        -0.0758   39.3928    9.5995 H           1 PRO       0.0340
    119 H54         2.9422   40.7898   12.2074 H           1 PRO       0.1884
    120 H55         3.8131   41.9196   14.5569 H           1 PRO       0.0797
    121 H56         3.6752   44.3761   13.9938 H           1 PRO       0.0277
    122 H57         3.6975   43.9551   12.2655 H           1 PRO       0.0277
    123 H58         5.0916   43.5816   13.2972 H           1 PRO       0.0277
    124 H59         1.8924   41.4375   15.4556 H           1 PRO       0.1877
    125 H60        -0.1940   41.3961   16.0690 H           1 PRO       0.0750
    126 H61        -1.7646   43.1798   15.4728 H           1 PRO       0.0484
    127 H62        -0.7040   43.7592   14.1913 H           1 PRO       0.0484
    128 H63         1.5846   44.8621   15.0646 H           1 PRO       0.2386
    129 H64        -1.1827   44.0231   17.9523 H           1 PRO       0.0324
    130 H65         2.2422   46.1096   17.1255 H           1 PRO       0.1149
@<TRIPOS>BOND
     1     1     2   1
     2     1     7   1
     3     2     3   1
     4     2     5   1
     5     3     4   2
     6     3     8  am
     7     5     6   1
     8     6     7   1
     9     8     9   1
    10     9    10   1
    11     9    12   1
    12    10    11   2
    13    10    18  am
    14    12    13   1
    15    13    14   1
    16    13    15   2
    17    14    16   1
    18    15    17   1
    19    16    17   2
    20    18    19   1
    21    19    20   1
    22    19    22   1
    23    20    21   2
    24    20    26  am
    25    22    23   1
    26    23    24   1
    27    23    25   1
    28    26    27   1
    29    27    28   1
    30    27    30   1
    31    28    29   2
    32    28    32  am
    33    30    31   1
    34    32    33   1
    35    33    34   1
    36    33    41   1
    37    34    35   1
    38    35    36  ar
    39    35    37  ar
    40    36    38  ar
    41    37    39  ar
    42    38    40  ar
    43    39    40  ar
    44    41    42   1
    45    42    43   1
    46    43    44   1
    47    43    48   1
    48    44    45   1
    49    45    46   1
    50    46    47   1
    51    48    49   2
    52    48    50  am
    53    50    51   1
    54    51    52   1
    55    51    54   1
    56    52    53   2
    57    52    55  am
    58    55    56   1
    59    56    57   1
    60    56    59   1
    61    57    58  ar
    62    57    65  ar
    63    59    60   1
    64    60    61   1
    65    60    62   2
    66    61    63   1
    67    62    64   1
    68    63    64   2
    69     1    66   1
    70     1    67   1
    71     2    68   1
    72     5    69   1
    73     5    70   1
    74     6    71   1
    75     6    72   1
    76     7    73   1
    77     7    74   1
    78     8    75   1
    79     9    76   1
    80    12    77   1
    81    12    78   1
    82    14    79   1
    83    15    80   1
    84    16    81   1
    85    18    82   1
    86    19    83   1
    87    22    84   1
    88    22    85   1
    89    23    86   1
    90    24    87   1
    91    24    88   1
    92    24    89   1
    93    25    90   1
    94    25    91   1
    95    25    92   1
    96    26    93   1
    97    27    94   1
    98    30    95   1
    99    30    96   1
   100    31    97   1
   101    32    98   1
   102    33    99   1
   103    34   100   1
   104    34   101   1
   105    36   102   1
   106    37   103   1
   107    38   104   1
   108    39   105   1
   109    40   106   1
   110    41   107   1
   111    41   108   1
   112    42   109   1
   113    42   110   1
   114    43   111   1
   115    44   112   1
   116    44   113   1
   117    45   114   1
   118    45   115   1
   119    47   116   1
   120    47   117   1
   121    47   118   1
   122    50   119   1
   123    51   120   1
   124    54   121   1
   125    54   122   1
   126    54   123   1
   127    55   124   1
   128    56   125   1
   129    59   126   1
   130    59   127   1
   131    61   128   1
   132    62   129   1
   133    63   130   1
@<TRIPOS>SUBSTRUCTURE
     1  PRO      2

