@<TRIPOS>MOLECULE
3uri_ligand_009
   130   133
SMALL
GAST_HUCK
****
This file was generated by PARSER (from files_GN.cpp)

@<TRIPOS>ATOM
      1 N           4.6840   38.9195   10.8496 N.4         1 PRO       0.2461
      2 CA          4.7663   38.5877   12.2841 C.3         1 PRO       0.0670
      3 C           3.7022   37.6894   12.6980 C.2         1 PRO       0.2269
      4 O           3.0091   37.9354   13.6772 O.2         1 PRO      -0.3907
      5 CB          4.8442   39.9752   12.9539 C.3         1 PRO       0.0127
      6 CG          5.7348   40.7787   11.9910 C.3         1 PRO      -0.0053
      7 CD          5.4968   40.1254   10.6127 C.3         1 PRO      -0.0313
      8 N           3.5623   36.5431   12.0410 N.am        1 PRO      -0.2592
      9 CA          2.7142   35.4304   12.4015 C.3         1 PRO       0.1422
     10 C           3.1439   34.7726   13.6371 C.2         1 PRO       0.2060
     11 O           4.0043   35.2922   14.3392 O.2         1 PRO      -0.3942
     12 CB          2.6305   34.4485   11.1744 C.3         1 PRO       0.0427
     13 CG          1.2571   34.2818   10.6549 C.2         1 PRO       0.0561
     14 ND1         0.6102   33.1300   10.4200 N.pl3       1 PRO      -0.2623
     15 CD2         0.3768   35.2992   10.3064 C.2         1 PRO      -0.0276
     16 CE1        -0.6107   33.4202    9.9497 C.2         1 PRO       0.0875
     17 NE2        -0.7667   34.7502    9.8734 N.2         1 PRO      -0.3437
     18 N           2.5619   33.6426   14.0410 N.am        1 PRO      -0.2636
     19 CA          2.8532   32.9264   15.2537 C.3         1 PRO       0.1312
     20 C           4.2510   32.4918   15.2363 C.2         1 PRO       0.2040
     21 O           4.6604   31.8624   14.2655 O.2         1 PRO      -0.3944
     22 CB          1.8743   31.7259   15.4720 C.3         1 PRO      -0.0101
     23 CG          0.3525   32.0595   15.2586 C.3         1 PRO      -0.0425
     24 CD1        -0.2241   31.3867   13.9794 C.3         1 PRO      -0.0625
     25 CD2        -0.5165   31.7144   16.5038 C.3         1 PRO      -0.0625
     26 N           5.0902   32.9005   16.1837 N.am        1 PRO      -0.2616
     27 CA          6.5236   32.7740   16.1938 C.3         1 PRO       0.1538
     28 C           6.9090   31.9409   17.3288 C.2         1 PRO       0.2045
     29 O           7.5994   32.3870   18.2385 O.2         1 PRO      -0.3944
     30 CB          7.1364   34.1996   16.2195 C.3         1 PRO       0.0843
     31 OG          6.7038   34.9829   15.1136 O.3         1 PRO      -0.3903
     32 N           6.5349   30.6670   17.3248 N.am        1 PRO      -0.2748
     33 C1          6.8573   29.6736   18.3106 C.3         1 PRO       0.0911
     34 C2          6.2291   29.9563   19.7166 C.3         1 PRO       0.0089
     35 C3          6.7697   31.0863   20.5244 C.ar        1 PRO      -0.0406
     36 C4          5.8930   31.9565   21.2186 C.ar        1 PRO      -0.0603
     37 C5          8.1632   31.2529   20.7064 C.ar        1 PRO      -0.0603
     38 C6          6.3923   32.9551   22.0756 C.ar        1 PRO      -0.0686
     39 C7          8.6652   32.2726   21.5397 C.ar        1 PRO      -0.0686
     40 C8          7.7773   33.1165   22.2369 C.ar        1 PRO      -0.0687
     41 C9          6.4588   28.2564   17.7721 C.3         1 PRO      -0.0062
     42 N2          5.1145   28.0277   17.1771 N.4         1 PRO       0.2479
     43 C10         3.8481   28.4765   17.8344 C.3         1 PRO       0.0676
     44 C11         2.6614   28.0911   16.8883 C.3         1 PRO       0.0169
     45 C12         1.2647   28.6565   17.2680 C.3         1 PRO       0.0007
     46 SD          0.2889   27.5214   18.2913 S.3         1 PRO      -0.1638
     47 C13        -1.2948   28.3631   18.0921 C.3         1 PRO      -0.0181
     48 C           3.6646   27.9533   19.1877 C.2         1 PRO       0.2268
     49 O           3.1849   28.6921   20.0405 O.2         1 PRO      -0.3907
     50 N           3.9814   26.7005   19.4956 N.am        1 PRO      -0.2613
     51 CA          4.0035   26.1285   20.8180 C.3         1 PRO       0.1283
     52 C           5.2977   26.3888   21.4511 C.2         1 PRO       0.2032
     53 O           6.2878   25.8448   20.9716 O.2         1 PRO      -0.3944
     54 CB          3.7018   24.6128   20.7176 C.3         1 PRO      -0.0244
     55 N           5.4022   27.1847   22.5147 N.am        1 PRO      -0.2677
     56 CA          6.6141   27.5912   23.1827 C.3         1 PRO       0.1056
     57 C           6.8340   26.7488   24.3800 C.2         1 PRO       0.0621
     58 O           8.0914   26.4276   24.7606 O.co2       1 PRO      -0.5664
     59 CB          6.6173   29.1217   23.4917 C.3         1 PRO       0.0372
     60 CG          5.9618   29.5700   24.7370 C.2         1 PRO       0.0555
     61 ND1         6.5525   30.2710   25.7108 N.pl3       1 PRO      -0.2623
     62 CD2         4.6292   29.4175   25.1090 C.2         1 PRO      -0.0276
     63 CE1         5.6388   30.5295   26.6593 C.2         1 PRO       0.0875
     64 NE2         4.4517   30.0111   26.2992 N.2         1 PRO      -0.3437
     65 OXT         5.8332   26.4997   25.2508 O.co2       1 PRO      -0.5664
     66 H1          3.7124   39.1277   10.6064 H           1 PRO       0.2035
     67 H2          5.0209   38.1369   10.2810 H           1 PRO       0.2035
     68 H3          5.7162   38.0709   12.4678 H           1 PRO       0.1099
     69 H4          5.2787   39.9209   13.9582 H           1 PRO       0.0347
     70 H5          3.8530   40.4360   13.0116 H           1 PRO       0.0347
     71 H6          6.7870   40.6752   12.2749 H           1 PRO       0.0320
     72 H7          5.4696   41.8392   11.9918 H           1 PRO       0.0320
     73 H8          4.9585   40.8021    9.9444 H           1 PRO       0.0814
     74 H9          6.4443   39.8448   10.1458 H           1 PRO       0.0814
     75 H10         4.1214   36.4346   11.2548 H           1 PRO       0.1886
     76 H11         1.7196   35.8333   12.6079 H           1 PRO       0.0824
     77 H12         3.0229   33.4647   11.4391 H           1 PRO       0.0491
     78 H13         3.2429   34.7975   10.3388 H           1 PRO       0.0491
     79 H14         0.9658   32.2408   10.5708 H           1 PRO       0.2386
     80 H15         0.5553   36.3029   10.3823 H           1 PRO       0.0324
     81 H16        -1.3225   32.7378    9.6892 H           1 PRO       0.1149
     82 H17         1.8673   33.2788   13.4731 H           1 PRO       0.1883
     83 H18         2.6889   33.6215   16.0878 H           1 PRO       0.0800
     84 H19         2.0428   31.3594   16.4922 H           1 PRO       0.0315
     85 H20         2.1697   30.9096   14.8082 H           1 PRO       0.0315
     86 H21         0.2418   33.1367   15.1117 H           1 PRO       0.0298
     87 H22        -1.2462   31.7203   13.7997 H           1 PRO       0.0232
     88 H23        -0.2192   30.3011   14.0829 H           1 PRO       0.0232
     89 H24         0.3781   31.6566   13.1091 H           1 PRO       0.0232
     90 H25        -0.1250   32.2270   17.3858 H           1 PRO       0.0232
     91 H26        -0.5240   30.6332   16.7036 H           1 PRO       0.0232
     92 H27        -1.5452   32.0471   16.3488 H           1 PRO       0.0232
     93 H28         4.7065   33.3943   16.9280 H           1 PRO       0.1884
     94 H29         6.8974   32.2819   15.2872 H           1 PRO       0.0823
     95 H30         8.2272   34.1367   16.1980 H           1 PRO       0.0606
     96 H31         6.8417   34.7140   17.1372 H           1 PRO       0.0606
     97 H32         7.3405   34.7983   14.3949 H           1 PRO       0.2097
     98 H33         6.0540   30.3602   16.5428 H           1 PRO       0.1859
     99 H34         7.9451   29.6501   18.4206 H           1 PRO       0.0632
    100 H35         6.3600   29.0687   20.3436 H           1 PRO       0.0450
    101 H36         5.1553   30.0962   19.5749 H           1 PRO       0.0450
    102 H37         4.8811   31.8488   21.1365 H           1 PRO       0.0557
    103 H38         8.8297   30.6155   20.2608 H           1 PRO       0.0557
    104 H39         5.7451   33.5473   22.5983 H           1 PRO       0.0599
    105 H40         9.6739   32.3918   21.6532 H           1 PRO       0.0599
    106 H41         8.1367   33.8426   22.8556 H           1 PRO       0.0559
    107 H42         6.6273   27.5105   18.5487 H           1 PRO       0.0839
    108 H43         7.1666   28.0097   16.9778 H           1 PRO       0.0839
    109 H44         5.0362   27.0170   17.0530 H           1 PRO       0.2036
    110 H45         5.1363   28.4544   16.2437 H           1 PRO       0.2036
    111 H46         3.8820   29.5695   17.8720 H           1 PRO       0.1099
    112 H47         2.6009   26.9983   16.8023 H           1 PRO       0.0354
    113 H48         2.9041   28.4886   15.8932 H           1 PRO       0.0354
    114 H49         0.6953   28.8438   16.3518 H           1 PRO       0.0380
    115 H50         1.3857   29.6062   17.7957 H           1 PRO       0.0380
    116 H51        -2.0609   27.8009   18.6318 H           1 PRO       0.0340
    117 H52        -1.5690   28.4148   17.0403 H           1 PRO       0.0340
    118 H53        -1.2335   29.3722   18.5013 H           1 PRO       0.0340
    119 H54         4.3275   26.1466   18.7730 H           1 PRO       0.1884
    120 H55         3.1957   26.5615   21.4196 H           1 PRO       0.0797
    121 H56         3.7738   24.1403   21.7020 H           1 PRO       0.0277
    122 H57         4.4063   24.1277   20.0380 H           1 PRO       0.0277
    123 H58         2.6892   24.4577   20.3353 H           1 PRO       0.0277
    124 H59         4.5732   27.5361   22.8779 H           1 PRO       0.1877
    125 H60         7.4705   27.4219   22.5219 H           1 PRO       0.0750
    126 H61         6.1333   29.6558   22.6709 H           1 PRO       0.0484
    127 H62         7.6568   29.4632   23.5238 H           1 PRO       0.0484
    128 H63         7.4872   30.5376   25.7288 H           1 PRO       0.2386
    129 H64         3.9070   28.9317   24.5763 H           1 PRO       0.0324
    130 H65         5.8197   31.0459   27.5198 H           1 PRO       0.1149
@<TRIPOS>BOND
     1     1     2   1
     2     1     7   1
     3     2     3   1
     4     2     5   1
     5     3     4   2
     6     3     8  am
     7     5     6   1
     8     6     7   1
     9     8     9   1
    10     9    10   1
    11     9    12   1
    12    10    11   2
    13    10    18  am
    14    12    13   1
    15    13    14   1
    16    13    15   2
    17    14    16   1
    18    15    17   1
    19    16    17   2
    20    18    19   1
    21    19    20   1
    22    19    22   1
    23    20    21   2
    24    20    26  am
    25    22    23   1
    26    23    24   1
    27    23    25   1
    28    26    27   1
    29    27    28   1
    30    27    30   1
    31    28    29   2
    32    28    32  am
    33    30    31   1
    34    32    33   1
    35    33    34   1
    36    33    41   1
    37    34    35   1
    38    35    36  ar
    39    35    37  ar
    40    36    38  ar
    41    37    39  ar
    42    38    40  ar
    43    39    40  ar
    44    41    42   1
    45    42    43   1
    46    43    44   1
    47    43    48   1
    48    44    45   1
    49    45    46   1
    50    46    47   1
    51    48    49   2
    52    48    50  am
    53    50    51   1
    54    51    52   1
    55    51    54   1
    56    52    53   2
    57    52    55  am
    58    55    56   1
    59    56    57   1
    60    56    59   1
    61    57    58  ar
    62    57    65  ar
    63    59    60   1
    64    60    61   1
    65    60    62   2
    66    61    63   1
    67    62    64   1
    68    63    64   2
    69     1    66   1
    70     1    67   1
    71     2    68   1
    72     5    69   1
    73     5    70   1
    74     6    71   1
    75     6    72   1
    76     7    73   1
    77     7    74   1
    78     8    75   1
    79     9    76   1
    80    12    77   1
    81    12    78   1
    82    14    79   1
    83    15    80   1
    84    16    81   1
    85    18    82   1
    86    19    83   1
    87    22    84   1
    88    22    85   1
    89    23    86   1
    90    24    87   1
    91    24    88   1
    92    24    89   1
    93    25    90   1
    94    25    91   1
    95    25    92   1
    96    26    93   1
    97    27    94   1
    98    30    95   1
    99    30    96   1
   100    31    97   1
   101    32    98   1
   102    33    99   1
   103    34   100   1
   104    34   101   1
   105    36   102   1
   106    37   103   1
   107    38   104   1
   108    39   105   1
   109    40   106   1
   110    41   107   1
   111    41   108   1
   112    42   109   1
   113    42   110   1
   114    43   111   1
   115    44   112   1
   116    44   113   1
   117    45   114   1
   118    45   115   1
   119    47   116   1
   120    47   117   1
   121    47   118   1
   122    50   119   1
   123    51   120   1
   124    54   121   1
   125    54   122   1
   126    54   123   1
   127    55   124   1
   128    56   125   1
   129    59   126   1
   130    59   127   1
   131    61   128   1
   132    62   129   1
   133    63   130   1
@<TRIPOS>SUBSTRUCTURE
     1  PRO      2

