@<TRIPOS>MOLECULE
3uri_ligand_066
   130   133
SMALL
GAST_HUCK
****
This file was generated by PARSER (from files_GN.cpp)

@<TRIPOS>ATOM
      1 N           2.8626   25.1241   19.3424 N.4         1 PRO       0.2461
      2 CA          2.9120   26.4701   18.7422 C.3         1 PRO       0.0670
      3 C           4.0833   27.2672   19.0837 C.2         1 PRO       0.2269
      4 O           4.7909   26.9614   20.0284 O.2         1 PRO      -0.3907
      5 CB          1.5851   27.1042   19.2017 C.3         1 PRO       0.0127
      6 CG          0.5871   25.9300   19.1908 C.3         1 PRO      -0.0053
      7 CD          1.4654   24.6623   19.2688 C.3         1 PRO      -0.0313
      8 N           4.3568   28.3120   18.3128 N.am        1 PRO      -0.2592
      9 CA          5.5095   29.1795   18.3482 C.3         1 PRO       0.1422
     10 C           5.1860   30.4592   17.7008 C.2         1 PRO       0.2060
     11 O           3.9999   30.7431   17.5083 O.2         1 PRO      -0.3942
     12 CB          6.7129   28.3980   17.7055 C.3         1 PRO       0.0427
     13 CG          7.6085   27.7991   18.7180 C.2         1 PRO       0.0561
     14 ND1         7.4714   26.5986   19.2956 N.pl3       1 PRO      -0.2623
     15 CD2         8.7349   28.3813   19.2931 C.2         1 PRO      -0.0276
     16 CE1         8.4715   26.4357   20.1770 C.2         1 PRO       0.0875
     17 NE2         9.2570   27.5258   20.1835 N.2         1 PRO      -0.3437
     18 N           6.1120   31.3850   17.4725 N.am        1 PRO      -0.2636
     19 CA          5.9195   32.7448   17.0247 C.3         1 PRO       0.1312
     20 C           5.2799   32.8449   15.7006 C.2         1 PRO       0.2040
     21 O           4.5037   31.9520   15.3448 O.2         1 PRO      -0.3944
     22 CB          7.2806   33.5270   17.1333 C.3         1 PRO      -0.0101
     23 CG          8.1750   33.3799   18.4146 C.3         1 PRO      -0.0425
     24 CD1         7.3587   33.1314   19.7120 C.3         1 PRO      -0.0625
     25 CD2         9.3379   32.3571   18.2617 C.3         1 PRO      -0.0625
     26 N           5.4834   33.8748   14.8808 N.am        1 PRO      -0.2616
     27 CA          4.9817   34.0679   13.5414 C.3         1 PRO       0.1538
     28 C           3.5407   34.3273   13.5064 C.2         1 PRO       0.2045
     29 O           3.1288   35.2266   14.2380 O.2         1 PRO      -0.3944
     30 CB          5.5253   32.9521   12.5996 C.3         1 PRO       0.0843
     31 OG          4.8077   31.7283   12.7327 O.3         1 PRO      -0.3903
     32 N           2.6963   33.6908   12.7062 N.am        1 PRO      -0.2748
     33 C1          1.2894   33.9635   12.5145 C.3         1 PRO       0.0911
     34 C2          1.0382   34.3960   11.0353 C.3         1 PRO       0.0089
     35 C3          1.1514   35.8728   10.8483 C.ar        1 PRO      -0.0406
     36 C4         -0.0077   36.6846   10.7505 C.ar        1 PRO      -0.0603
     37 C5          2.4152   36.5055   10.8269 C.ar        1 PRO      -0.0603
     38 C6          0.0975   38.0841   10.6384 C.ar        1 PRO      -0.0686
     39 C7          2.5235   37.9079   10.7231 C.ar        1 PRO      -0.0686
     40 C8          1.3612   38.6974   10.6341 C.ar        1 PRO      -0.0687
     41 C9          0.4635   32.7149   12.9517 C.3         1 PRO      -0.0062
     42 N2          0.6847   32.4816   14.4022 N.4         1 PRO       0.2479
     43 C10        -0.2069   31.5125   15.0937 C.3         1 PRO       0.0676
     44 C11         0.1992   31.4325   16.6058 C.3         1 PRO       0.0169
     45 C12        -0.8289   30.8048   17.5857 C.3         1 PRO       0.0007
     46 SD         -1.2803   29.1017   17.1362 S.3         1 PRO      -0.1638
     47 C13        -3.0714   29.3158   17.0351 C.3         1 PRO      -0.0181
     48 C          -1.5991   31.8898   14.8732 C.2         1 PRO       0.2268
     49 O          -2.1910   31.3732   13.9294 O.2         1 PRO      -0.3907
     50 N          -2.1724   32.8445   15.5985 N.am        1 PRO      -0.2613
     51 CA         -3.4950   33.3857   15.4446 C.3         1 PRO       0.1283
     52 C          -3.3810   34.6918   14.7981 C.2         1 PRO       0.2032
     53 O          -3.5614   34.7640   13.5905 O.2         1 PRO      -0.3944
     54 CB         -4.2319   33.4185   16.8046 C.3         1 PRO      -0.0244
     55 N          -2.9334   35.7536   15.4766 N.am        1 PRO      -0.2677
     56 CA         -2.6514   37.0478   14.9101 C.3         1 PRO       0.1056
     57 C          -1.9982   37.8799   15.9509 C.2         1 PRO       0.0621
     58 O          -0.6508   37.9583   15.9895 O.co2       1 PRO      -0.5664
     59 CB         -3.9167   37.7194   14.2760 C.3         1 PRO       0.0372
     60 CG         -3.5680   38.8681   13.4110 C.2         1 PRO       0.0555
     61 ND1        -3.7326   40.1671   13.6853 N.pl3       1 PRO      -0.2623
     62 CD2        -2.9958   38.8061   12.1396 C.2         1 PRO      -0.0276
     63 CE1        -3.2837   40.8814   12.6383 C.2         1 PRO       0.0875
     64 NE2        -2.8263   40.0568   11.6801 N.2         1 PRO      -0.3437
     65 OXT        -2.6890   38.6257   16.8447 O.co2       1 PRO      -0.5664
     66 H1          3.1405   25.1793   20.3269 H           1 PRO       0.2035
     67 H2          3.4834   24.4824   18.8406 H           1 PRO       0.2035
     68 H3          2.8955   26.3378   17.6537 H           1 PRO       0.1099
     69 H4          1.2724   27.9104   18.5310 H           1 PRO       0.0347
     70 H5          1.6749   27.4993   20.2212 H           1 PRO       0.0347
     71 H6          0.0076   25.9350   18.2629 H           1 PRO       0.0320
     72 H7         -0.0995   25.9946   20.0394 H           1 PRO       0.0320
     73 H8          1.2298   24.0679   20.1550 H           1 PRO       0.0814
     74 H9          1.3302   24.0445   18.3760 H           1 PRO       0.0814
     75 H10         3.7260   28.4718   17.5912 H           1 PRO       0.1886
     76 H11         5.7437   29.4229   19.3951 H           1 PRO       0.0824
     77 H12         7.3294   29.0446   17.0803 H           1 PRO       0.0491
     78 H13         6.3475   27.6058   17.0422 H           1 PRO       0.0491
     79 H14         6.7642   25.9587   19.1110 H           1 PRO       0.2386
     80 H15         9.1136   29.3042   19.0771 H           1 PRO       0.0324
     81 H16         8.6190   25.6121   20.7583 H           1 PRO       0.1149
     82 H17         7.0267   31.1294   17.6535 H           1 PRO       0.1883
     83 H18         5.2265   33.2114   17.7312 H           1 PRO       0.0800
     84 H19         7.0338   34.5894   17.0635 H           1 PRO       0.0315
     85 H20         7.8859   33.2971   16.2522 H           1 PRO       0.0315
     86 H21         8.6755   34.3450   18.5478 H           1 PRO       0.0298
     87 H22         8.0098   33.1833   20.5891 H           1 PRO       0.0232
     88 H23         6.8882   32.1436   19.6919 H           1 PRO       0.0232
     89 H24         6.5834   33.8977   19.8096 H           1 PRO       0.0232
     90 H25         9.9563   32.6069   17.3955 H           1 PRO       0.0232
     91 H26         8.9661   31.3413   18.1398 H           1 PRO       0.0232
     92 H27         9.9805   32.3818   19.1458 H           1 PRO       0.0232
     93 H28         6.0546   34.5951   15.2032 H           1 PRO       0.1884
     94 H29         5.4541   34.9913   13.1865 H           1 PRO       0.0823
     95 H30         6.5692   32.7495   12.8540 H           1 PRO       0.0606
     96 H31         5.4883   33.2822   11.5547 H           1 PRO       0.0606
     97 H32         5.2960   31.1078   12.1628 H           1 PRO       0.2097
     98 H33         3.0612   32.9837   12.1463 H           1 PRO       0.1859
     99 H34         0.9471   34.7903   13.1497 H           1 PRO       0.0632
    100 H35         0.0378   34.0701   10.7347 H           1 PRO       0.0450
    101 H36         1.7347   33.8835   10.3665 H           1 PRO       0.0450
    102 H37        -0.9347   36.2602   10.7636 H           1 PRO       0.0557
    103 H38         3.2723   35.9524   10.8824 H           1 PRO       0.0557
    104 H39        -0.7471   38.6568   10.5778 H           1 PRO       0.0599
    105 H40         3.4394   38.3554   10.7212 H           1 PRO       0.0599
    106 H41         1.4380   39.7141   10.5558 H           1 PRO       0.0559
    107 H42         0.7666   31.8256   12.3796 H           1 PRO       0.0839
    108 H43        -0.6096   32.8960   12.7920 H           1 PRO       0.0839
    109 H44         0.5771   33.3761   14.8803 H           1 PRO       0.2036
    110 H45         1.6521   32.1832   14.5367 H           1 PRO       0.2036
    111 H46        -0.0114   30.5236   14.6612 H           1 PRO       0.1099
    112 H47         0.4115   32.4456   16.9673 H           1 PRO       0.0354
    113 H48         1.1318   30.8615   16.6805 H           1 PRO       0.0354
    114 H49        -1.7104   31.4528   17.6295 H           1 PRO       0.0380
    115 H50        -0.3911   30.7795   18.5910 H           1 PRO       0.0380
    116 H51        -3.5323   28.3492   16.8398 H           1 PRO       0.0340
    117 H52        -3.3144   29.9968   16.2165 H           1 PRO       0.0340
    118 H53        -3.4620   29.7175   17.9724 H           1 PRO       0.0340
    119 H54        -1.6336   33.2596   16.2863 H           1 PRO       0.1884
    120 H55        -4.1014   32.7424   14.8021 H           1 PRO       0.0797
    121 H56        -5.2224   33.8701   16.6898 H           1 PRO       0.0277
    122 H57        -3.6706   33.9892   17.5461 H           1 PRO       0.0277
    123 H58        -4.3615   32.4002   17.1773 H           1 PRO       0.0277
    124 H59        -2.7126   35.6181   16.4164 H           1 PRO       0.1877
    125 H60        -1.9024   36.8987   14.1237 H           1 PRO       0.0750
    126 H61        -4.6022   38.0490   15.0619 H           1 PRO       0.0484
    127 H62        -4.4669   37.0023   13.6600 H           1 PRO       0.0484
    128 H63        -4.1125   40.5317   14.4997 H           1 PRO       0.2386
    129 H64        -2.7478   37.9554   11.6296 H           1 PRO       0.0324
    130 H65        -3.2871   41.8998   12.5801 H           1 PRO       0.1149
@<TRIPOS>BOND
     1     1     2   1
     2     1     7   1
     3     2     3   1
     4     2     5   1
     5     3     4   2
     6     3     8  am
     7     5     6   1
     8     6     7   1
     9     8     9   1
    10     9    10   1
    11     9    12   1
    12    10    11   2
    13    10    18  am
    14    12    13   1
    15    13    14   1
    16    13    15   2
    17    14    16   1
    18    15    17   1
    19    16    17   2
    20    18    19   1
    21    19    20   1
    22    19    22   1
    23    20    21   2
    24    20    26  am
    25    22    23   1
    26    23    24   1
    27    23    25   1
    28    26    27   1
    29    27    28   1
    30    27    30   1
    31    28    29   2
    32    28    32  am
    33    30    31   1
    34    32    33   1
    35    33    34   1
    36    33    41   1
    37    34    35   1
    38    35    36  ar
    39    35    37  ar
    40    36    38  ar
    41    37    39  ar
    42    38    40  ar
    43    39    40  ar
    44    41    42   1
    45    42    43   1
    46    43    44   1
    47    43    48   1
    48    44    45   1
    49    45    46   1
    50    46    47   1
    51    48    49   2
    52    48    50  am
    53    50    51   1
    54    51    52   1
    55    51    54   1
    56    52    53   2
    57    52    55  am
    58    55    56   1
    59    56    57   1
    60    56    59   1
    61    57    58  ar
    62    57    65  ar
    63    59    60   1
    64    60    61   1
    65    60    62   2
    66    61    63   1
    67    62    64   1
    68    63    64   2
    69     1    66   1
    70     1    67   1
    71     2    68   1
    72     5    69   1
    73     5    70   1
    74     6    71   1
    75     6    72   1
    76     7    73   1
    77     7    74   1
    78     8    75   1
    79     9    76   1
    80    12    77   1
    81    12    78   1
    82    14    79   1
    83    15    80   1
    84    16    81   1
    85    18    82   1
    86    19    83   1
    87    22    84   1
    88    22    85   1
    89    23    86   1
    90    24    87   1
    91    24    88   1
    92    24    89   1
    93    25    90   1
    94    25    91   1
    95    25    92   1
    96    26    93   1
    97    27    94   1
    98    30    95   1
    99    30    96   1
   100    31    97   1
   101    32    98   1
   102    33    99   1
   103    34   100   1
   104    34   101   1
   105    36   102   1
   106    37   103   1
   107    38   104   1
   108    39   105   1
   109    40   106   1
   110    41   107   1
   111    41   108   1
   112    42   109   1
   113    42   110   1
   114    43   111   1
   115    44   112   1
   116    44   113   1
   117    45   114   1
   118    45   115   1
   119    47   116   1
   120    47   117   1
   121    47   118   1
   122    50   119   1
   123    51   120   1
   124    54   121   1
   125    54   122   1
   126    54   123   1
   127    55   124   1
   128    56   125   1
   129    59   126   1
   130    59   127   1
   131    61   128   1
   132    62   129   1
   133    63   130   1
@<TRIPOS>SUBSTRUCTURE
     1  PRO      2

