@<TRIPOS>MOLECULE
3uri_ligand_037
   130   133
SMALL
GAST_HUCK
****
This file was generated by PARSER (from files_GN.cpp)

@<TRIPOS>ATOM
      1 N           4.6152   38.9062   10.9019 N.4         1 PRO       0.2461
      2 CA          4.7475   38.4640   12.3005 C.3         1 PRO       0.0670
      3 C           3.6304   37.6290   12.7104 C.2         1 PRO       0.2269
      4 O           2.9196   37.9431   13.6560 O.2         1 PRO      -0.3907
      5 CB          4.9908   39.7804   13.0674 C.3         1 PRO       0.0127
      6 CG          5.8989   40.5688   12.1080 C.3         1 PRO      -0.0053
      7 CD          5.5054   40.0625   10.7032 C.3         1 PRO      -0.0313
      8 N           3.4708   36.4686   12.0899 N.am        1 PRO      -0.2592
      9 CA          2.5748   35.3959   12.4436 C.3         1 PRO       0.1422
     10 C           2.9944   34.7079   13.6763 C.2         1 PRO       0.2060
     11 O           3.8358   35.2245   14.4043 O.2         1 PRO      -0.3942
     12 CB          2.4436   34.4397   11.1994 C.3         1 PRO       0.0427
     13 CG          1.0607   34.3117   10.6943 C.2         1 PRO       0.0561
     14 ND1         0.3489   33.1837   10.5707 N.pl3       1 PRO      -0.2623
     15 CD2         0.2528   35.3413   10.2258 C.2         1 PRO      -0.0276
     16 CE1        -0.8515   33.4969   10.0603 C.2         1 PRO       0.0875
     17 NE2        -0.9228   34.8208    9.8462 N.2         1 PRO      -0.3437
     18 N           2.4191   33.5685   14.0627 N.am        1 PRO      -0.2636
     19 CA          2.7156   32.8327   15.2663 C.3         1 PRO       0.1312
     20 C           4.1122   32.3824   15.2378 C.2         1 PRO       0.2040
     21 O           4.4655   31.6380   14.3357 O.2         1 PRO      -0.3944
     22 CB          1.7290   31.6395   15.4732 C.3         1 PRO      -0.0101
     23 CG          0.1993   31.9907   15.3347 C.3         1 PRO      -0.0425
     24 CD1        -0.4423   31.3004   14.0981 C.3         1 PRO      -0.0625
     25 CD2        -0.6133   31.6716   16.6222 C.3         1 PRO      -0.0625
     26 N           5.0039   32.8898   16.0935 N.am        1 PRO      -0.2616
     27 CA          6.4384   32.7413   16.0519 C.3         1 PRO       0.1538
     28 C           6.8768   31.9489   17.1992 C.2         1 PRO       0.2045
     29 O           7.6695   32.4191   18.0135 O.2         1 PRO      -0.3944
     30 CB          7.0849   34.1562   15.9849 C.3         1 PRO       0.0843
     31 OG          6.6500   34.8945   14.8476 O.3         1 PRO      -0.3903
     32 N           6.4661   30.6956   17.3203 N.am        1 PRO      -0.2748
     33 C1          6.8869   29.7389   18.3113 C.3         1 PRO       0.0911
     34 C2          6.3528   30.0234   19.7572 C.3         1 PRO       0.0089
     35 C3          6.8979   31.1391   20.5800 C.ar        1 PRO      -0.0406
     36 C4          6.0025   32.0236   21.2360 C.ar        1 PRO      -0.0603
     37 C5          8.2809   31.2554   20.8524 C.ar        1 PRO      -0.0603
     38 C6          6.4768   33.0283   22.0951 C.ar        1 PRO      -0.0686
     39 C7          8.7564   32.2819   21.6914 C.ar        1 PRO      -0.0686
     40 C8          7.8549   33.1642   22.3171 C.ar        1 PRO      -0.0687
     41 C9          6.5181   28.2929   17.8183 C.3         1 PRO      -0.0062
     42 N2          5.1522   28.0066   17.2824 N.4         1 PRO       0.2479
     43 C10         3.9285   28.2332   18.1079 C.3         1 PRO       0.0676
     44 C11         2.6429   27.7673   17.3425 C.3         1 PRO       0.0169
     45 C12         1.3065   28.3578   17.8835 C.3         1 PRO       0.0007
     46 SD          0.7608   27.6759   19.4745 S.3         1 PRO      -0.1638
     47 C13        -0.5779   26.5924   18.9342 C.3         1 PRO      -0.0181
     48 C           4.0233   27.6054   19.4244 C.2         1 PRO       0.2268
     49 O           3.8532   28.2979   20.4170 O.2         1 PRO      -0.3907
     50 N           4.2725   26.3041   19.5367 N.am        1 PRO      -0.2613
     51 CA          4.5306   25.5587   20.7392 C.3         1 PRO       0.1283
     52 C           3.4428   25.6624   21.7159 C.2         1 PRO       0.2032
     53 O           2.4681   24.9276   21.5848 O.2         1 PRO      -0.3944
     54 CB          5.9455   25.8704   21.2999 C.3         1 PRO      -0.0244
     55 N           3.4696   26.5731   22.6841 N.am        1 PRO      -0.2677
     56 CA          2.4718   26.8015   23.6916 C.3         1 PRO       0.1056
     57 C           1.2729   27.4288   23.0910 C.2         1 PRO       0.0621
     58 O           1.3363   28.6704   22.5598 O.co2       1 PRO      -0.5664
     59 CB          3.0283   27.7001   24.8346 C.3         1 PRO       0.0372
     60 CG          4.1674   27.0870   25.5462 C.2         1 PRO       0.0555
     61 ND1         4.0930   26.3878   26.6853 N.pl3       1 PRO      -0.2623
     62 CD2         5.5113   27.1089   25.1850 C.2         1 PRO      -0.0276
     63 CE1         5.3278   25.9896   27.0185 C.2         1 PRO       0.0875
     64 NE2         6.2104   26.4278   26.1049 N.2         1 PRO      -0.3437
     65 OXT         0.0857   26.7805   23.0781 O.co2       1 PRO      -0.5664
     66 H1          3.6503   39.1983   10.7328 H           1 PRO       0.2035
     67 H2          4.8620   38.1456   10.2656 H           1 PRO       0.2035
     68 H3          5.6574   37.8524   12.3860 H           1 PRO       0.1099
     69 H4          5.4762   39.6063   14.0325 H           1 PRO       0.0347
     70 H5          4.0538   40.3203   13.2225 H           1 PRO       0.0347
     71 H6          6.9481   40.3295   12.3078 H           1 PRO       0.0320
     72 H7          5.7520   41.6455   12.2133 H           1 PRO       0.0320
     73 H8          4.9768   40.8345   10.1384 H           1 PRO       0.0814
     74 H9          6.3883   39.7528   10.1383 H           1 PRO       0.0814
     75 H10         4.0665   36.3066   11.3386 H           1 PRO       0.1886
     76 H11         1.5990   35.8376   12.6654 H           1 PRO       0.0824
     77 H12         2.8234   33.4418   11.4322 H           1 PRO       0.0491
     78 H13         3.0413   34.7939   10.3555 H           1 PRO       0.0491
     79 H14         0.6500   32.2911   10.8031 H           1 PRO       0.2386
     80 H15         0.5001   36.3298   10.1809 H           1 PRO       0.0324
     81 H16        -1.5970   32.8327    9.8524 H           1 PRO       0.1149
     82 H17         1.7304   33.2094   13.4813 H           1 PRO       0.1883
     83 H18         2.5592   33.5086   16.1132 H           1 PRO       0.0800
     84 H19         1.9269   31.2341   16.4694 H           1 PRO       0.0315
     85 H20         1.9857   30.8394   14.7714 H           1 PRO       0.0315
     86 H21         0.0886   33.0670   15.1785 H           1 PRO       0.0298
     87 H22        -1.4751   31.6290   13.9603 H           1 PRO       0.0232
     88 H23        -0.4351   30.2148   14.2172 H           1 PRO       0.0232
     89 H24         0.1163   31.5519   13.1937 H           1 PRO       0.0232
     90 H25        -0.1735   32.1799   17.4825 H           1 PRO       0.0232
     91 H26        -0.6225   30.5989   16.8167 H           1 PRO       0.0232
     92 H27        -1.6457   32.0153   16.5178 H           1 PRO       0.0232
     93 H28         4.6539   33.4663   16.7939 H           1 PRO       0.1884
     94 H29         6.7545   32.2098   15.1487 H           1 PRO       0.0823
     95 H30         8.1741   34.0679   15.9473 H           1 PRO       0.0606
     96 H31         6.8209   34.7325   16.8742 H           1 PRO       0.0606
     97 H32         7.2230   34.5989   14.1048 H           1 PRO       0.2097
     98 H33         5.9134   30.3576   16.5981 H           1 PRO       0.1859
     99 H34         7.9801   29.7609   18.3588 H           1 PRO       0.0632
    100 H35         6.5026   29.1186   20.3633 H           1 PRO       0.0450
    101 H36         5.2755   30.1716   19.6560 H           1 PRO       0.0450
    102 H37         4.9903   31.9306   21.1165 H           1 PRO       0.0557
    103 H38         8.9468   30.5946   20.4444 H           1 PRO       0.0557
    104 H39         5.8135   33.6393   22.5741 H           1 PRO       0.0599
    105 H40         9.7615   32.3698   21.8657 H           1 PRO       0.0599
    106 H41         8.1988   33.8887   22.9449 H           1 PRO       0.0559
    107 H42         6.7392   27.5728   18.6046 H           1 PRO       0.0839
    108 H43         7.2054   28.0485   17.0008 H           1 PRO       0.0839
    109 H44         5.1479   27.0192   17.0269 H           1 PRO       0.2036
    110 H45         5.0597   28.5527   16.4170 H           1 PRO       0.2036
    111 H46         3.8351   29.3267   18.2106 H           1 PRO       0.1099
    112 H47         2.5837   26.6739   17.3238 H           1 PRO       0.0354
    113 H48         2.7363   28.1053   16.3054 H           1 PRO       0.0354
    114 H49         0.5288   28.2236   17.1329 H           1 PRO       0.0380
    115 H50         1.4259   29.4321   18.0301 H           1 PRO       0.0380
    116 H51        -0.9720   26.0599   19.7995 H           1 PRO       0.0340
    117 H52        -0.2066   25.8688   18.2065 H           1 PRO       0.0340
    118 H53        -1.3789   27.1870   18.4921 H           1 PRO       0.0340
    119 H54         4.3342   25.8063   18.7058 H           1 PRO       0.1884
    120 H55         4.5834   24.5116   20.4204 H           1 PRO       0.0797
    121 H56         6.1625   25.2265   22.1553 H           1 PRO       0.0277
    122 H57         6.0299   26.9116   21.6151 H           1 PRO       0.0277
    123 H58         6.7009   25.6861   20.5337 H           1 PRO       0.0277
    124 H59         4.2576   27.1317   22.7341 H           1 PRO       0.1877
    125 H60         2.1880   25.8400   24.1330 H           1 PRO       0.0750
    126 H61         2.2344   27.8865   25.5646 H           1 PRO       0.0484
    127 H62         3.3441   28.6713   24.4386 H           1 PRO       0.0484
    128 H63         3.2806   26.1978   27.1805 H           1 PRO       0.2386
    129 H64         5.9073   27.5670   24.3627 H           1 PRO       0.0324
    130 H65         5.5620   25.4353   27.8424 H           1 PRO       0.1149
@<TRIPOS>BOND
     1     1     2   1
     2     1     7   1
     3     2     3   1
     4     2     5   1
     5     3     4   2
     6     3     8  am
     7     5     6   1
     8     6     7   1
     9     8     9   1
    10     9    10   1
    11     9    12   1
    12    10    11   2
    13    10    18  am
    14    12    13   1
    15    13    14   1
    16    13    15   2
    17    14    16   1
    18    15    17   1
    19    16    17   2
    20    18    19   1
    21    19    20   1
    22    19    22   1
    23    20    21   2
    24    20    26  am
    25    22    23   1
    26    23    24   1
    27    23    25   1
    28    26    27   1
    29    27    28   1
    30    27    30   1
    31    28    29   2
    32    28    32  am
    33    30    31   1
    34    32    33   1
    35    33    34   1
    36    33    41   1
    37    34    35   1
    38    35    36  ar
    39    35    37  ar
    40    36    38  ar
    41    37    39  ar
    42    38    40  ar
    43    39    40  ar
    44    41    42   1
    45    42    43   1
    46    43    44   1
    47    43    48   1
    48    44    45   1
    49    45    46   1
    50    46    47   1
    51    48    49   2
    52    48    50  am
    53    50    51   1
    54    51    52   1
    55    51    54   1
    56    52    53   2
    57    52    55  am
    58    55    56   1
    59    56    57   1
    60    56    59   1
    61    57    58  ar
    62    57    65  ar
    63    59    60   1
    64    60    61   1
    65    60    62   2
    66    61    63   1
    67    62    64   1
    68    63    64   2
    69     1    66   1
    70     1    67   1
    71     2    68   1
    72     5    69   1
    73     5    70   1
    74     6    71   1
    75     6    72   1
    76     7    73   1
    77     7    74   1
    78     8    75   1
    79     9    76   1
    80    12    77   1
    81    12    78   1
    82    14    79   1
    83    15    80   1
    84    16    81   1
    85    18    82   1
    86    19    83   1
    87    22    84   1
    88    22    85   1
    89    23    86   1
    90    24    87   1
    91    24    88   1
    92    24    89   1
    93    25    90   1
    94    25    91   1
    95    25    92   1
    96    26    93   1
    97    27    94   1
    98    30    95   1
    99    30    96   1
   100    31    97   1
   101    32    98   1
   102    33    99   1
   103    34   100   1
   104    34   101   1
   105    36   102   1
   106    37   103   1
   107    38   104   1
   108    39   105   1
   109    40   106   1
   110    41   107   1
   111    41   108   1
   112    42   109   1
   113    42   110   1
   114    43   111   1
   115    44   112   1
   116    44   113   1
   117    45   114   1
   118    45   115   1
   119    47   116   1
   120    47   117   1
   121    47   118   1
   122    50   119   1
   123    51   120   1
   124    54   121   1
   125    54   122   1
   126    54   123   1
   127    55   124   1
   128    56   125   1
   129    59   126   1
   130    59   127   1
   131    61   128   1
   132    62   129   1
   133    63   130   1
@<TRIPOS>SUBSTRUCTURE
     1  PRO      2

