@<TRIPOS>MOLECULE
3uri_ligand_067
   130   133
SMALL
GAST_HUCK
****
This file was generated by PARSER (from files_GN.cpp)

@<TRIPOS>ATOM
      1 N          -4.2252   29.1831   21.3559 N.4         1 PRO       0.2461
      2 CA         -4.1247   29.5983   19.9462 C.3         1 PRO       0.0670
      3 C          -2.7964   30.0776   19.6028 C.2         1 PRO       0.2269
      4 O          -2.2256   30.8360   20.3723 O.2         1 PRO      -0.3907
      5 CB         -5.2237   30.6718   19.8027 C.3         1 PRO       0.0127
      6 CG         -6.3492   30.1635   20.7206 C.3         1 PRO      -0.0053
      7 CD         -5.6467   29.2377   21.7376 C.3         1 PRO      -0.0313
      8 N          -2.2232   29.7021   18.4588 N.am        1 PRO      -0.2592
      9 CA         -0.9410   30.1278   17.9511 C.3         1 PRO       0.1422
     10 C           0.1867   29.6081   18.7343 C.2         1 PRO       0.2060
     11 O           1.3250   29.9800   18.4731 O.2         1 PRO      -0.3942
     12 CB         -0.9208   31.6845   17.7471 C.3         1 PRO       0.0427
     13 CG         -1.8410   32.1588   16.6886 C.2         1 PRO       0.0561
     14 ND1        -3.1824   32.1870   16.7375 N.pl3       1 PRO      -0.2623
     15 CD2        -1.4878   32.7268   15.4636 C.2         1 PRO      -0.0276
     16 CE1        -3.6374   32.7245   15.5974 C.2         1 PRO       0.0875
     17 NE2        -2.6038   33.0650   14.8004 N.2         1 PRO      -0.3437
     18 N           0.0034   28.6684   19.6642 N.am        1 PRO      -0.2636
     19 CA          0.9942   28.1781   20.5858 C.3         1 PRO       0.1312
     20 C           2.1557   27.5942   19.9087 C.2         1 PRO       0.2040
     21 O           2.1117   26.4384   19.4903 O.2         1 PRO      -0.3944
     22 CB          0.3413   27.2757   21.6844 C.3         1 PRO      -0.0101
     23 CG         -0.1786   25.8359   21.3422 C.3         1 PRO      -0.0425
     24 CD1        -0.8486   25.1992   22.5963 C.3         1 PRO      -0.0625
     25 CD2        -1.1609   25.7696   20.1388 C.3         1 PRO      -0.0625
     26 N           3.1916   28.3819   19.6318 N.am        1 PRO      -0.2616
     27 CA          4.3581   28.0962   18.8219 C.3         1 PRO       0.1538
     28 C           5.4456   29.0558   19.0484 C.2         1 PRO       0.2045
     29 O           6.2672   29.2446   18.1553 O.2         1 PRO      -0.3944
     30 CB          3.9194   28.0767   17.3239 C.3         1 PRO       0.0843
     31 OG          4.9864   27.7454   16.4364 O.3         1 PRO      -0.3903
     32 N           5.5347   29.7639   20.1679 N.am        1 PRO      -0.2748
     33 C1          6.4102   30.8432   20.5048 C.3         1 PRO       0.0911
     34 C2          7.6718   30.3791   21.3052 C.3         1 PRO       0.0089
     35 C3          8.8076   29.8417   20.5088 C.ar        1 PRO      -0.0406
     36 C4          9.5883   30.7117   19.7123 C.ar        1 PRO      -0.0603
     37 C5          9.1132   28.4579   20.4972 C.ar        1 PRO      -0.0603
     38 C6         10.6380   30.2185   18.9103 C.ar        1 PRO      -0.0686
     39 C7         10.1651   27.9651   19.7027 C.ar        1 PRO      -0.0686
     40 C8         10.9188   28.8414   18.8940 C.ar        1 PRO      -0.0687
     41 C9          6.7016   31.8431   19.3431 C.3         1 PRO      -0.0062
     42 N2          5.5803   31.9904   18.3669 N.4         1 PRO       0.2479
     43 C10         5.4113   33.3191   17.7093 C.3         1 PRO       0.0676
     44 C11         6.7312   33.9549   17.1195 C.3         1 PRO       0.0169
     45 C12         6.9506   34.1620   15.5946 C.3         1 PRO       0.0007
     46 SD          7.3117   32.7260   14.5459 S.3         1 PRO      -0.1638
     47 C13         8.3268   31.6813   15.6276 C.3         1 PRO      -0.0181
     48 C           4.2759   33.2474   16.7910 C.2         1 PRO       0.2268
     49 O           3.2289   33.8206   17.0726 O.2         1 PRO      -0.3907
     50 N           4.3876   32.5497   15.6602 N.am        1 PRO      -0.2613
     51 CA          3.4931   32.4802   14.5345 C.3         1 PRO       0.1283
     52 C           3.2081   33.7666   13.8941 C.2         1 PRO       0.2032
     53 O           3.2087   34.7968   14.5640 O.2         1 PRO      -0.3944
     54 CB          2.2031   31.6786   14.8638 C.3         1 PRO      -0.0244
     55 N           2.8893   33.8108   12.6007 N.am        1 PRO      -0.2677
     56 CA          2.6428   34.9687   11.7846 C.3         1 PRO       0.1056
     57 C           2.1971   36.1817   12.5177 C.2         1 PRO       0.0621
     58 O           1.1116   36.1622   13.3207 O.co2       1 PRO      -0.5664
     59 CB          1.6435   34.6158   10.6398 C.3         1 PRO       0.0372
     60 CG          0.2881   34.2430   11.1052 C.2         1 PRO       0.0555
     61 ND1        -0.8396   34.9299   10.8731 N.pl3       1 PRO      -0.2623
     62 CD2        -0.0762   33.1499   11.8868 C.2         1 PRO      -0.0276
     63 CE1        -1.8503   34.3115   11.5037 C.2         1 PRO       0.0875
     64 NE2        -1.3952   33.2148   12.1317 N.2         1 PRO      -0.3437
     65 OXT         2.9481   37.3081   12.5018 O.co2       1 PRO      -0.5664
     66 H1         -3.7041   29.8382   21.9451 H           1 PRO       0.2035
     67 H2         -3.8524   28.2382   21.4831 H           1 PRO       0.2035
     68 H3         -4.3924   28.7373   19.3230 H           1 PRO       0.1099
     69 H4         -5.5579   30.7679   18.7653 H           1 PRO       0.0347
     70 H5         -4.8798   31.6485   20.1588 H           1 PRO       0.0347
     71 H6         -7.0822   29.5979   20.1385 H           1 PRO       0.0320
     72 H7         -6.8577   30.9950   21.2185 H           1 PRO       0.0320
     73 H8         -5.7374   29.6269   22.7548 H           1 PRO       0.0814
     74 H9         -6.0726   28.2314   21.7031 H           1 PRO       0.0814
     75 H10        -2.7164   29.0807   17.8998 H           1 PRO       0.1886
     76 H11        -0.8346   29.6796   16.9552 H           1 PRO       0.0824
     77 H12         0.0893   32.0106   17.4812 H           1 PRO       0.0491
     78 H13        -1.1891   32.1917   18.6766 H           1 PRO       0.0491
     79 H14        -3.7315   31.8697   17.4792 H           1 PRO       0.2386
     80 H15        -0.5336   32.8732   15.1213 H           1 PRO       0.0324
     81 H16        -4.6243   32.8661   15.3728 H           1 PRO       0.1149
     82 H17        -0.9110   28.3734   19.8099 H           1 PRO       0.1883
     83 H18         1.3272   29.0624   21.1450 H           1 PRO       0.0800
     84 H19        -0.4963   27.8402   22.1134 H           1 PRO       0.0315
     85 H20         1.0806   27.1646   22.4876 H           1 PRO       0.0315
     86 H21         0.6863   25.2129   21.0973 H           1 PRO       0.0298
     87 H22        -1.1117   24.1557   22.3992 H           1 PRO       0.0232
     88 H23        -1.7599   25.7468   22.8626 H           1 PRO       0.0232
     89 H24        -0.1645   25.2216   23.4500 H           1 PRO       0.0232
     90 H25        -0.6647   26.0779   19.2162 H           1 PRO       0.0232
     91 H26        -2.0275   26.4161   20.3084 H           1 PRO       0.0232
     92 H27        -1.5159   24.7456   19.9935 H           1 PRO       0.0232
     93 H28         3.1057   29.2978   19.9489 H           1 PRO       0.1884
     94 H29         4.7336   27.1035   19.0960 H           1 PRO       0.0823
     95 H30         3.5021   29.0481   17.0367 H           1 PRO       0.0606
     96 H31         3.1468   27.3201   17.1669 H           1 PRO       0.0606
     97 H32         5.1550   28.5577   15.9148 H           1 PRO       0.2097
     98 H33         4.8737   29.5628   20.8486 H           1 PRO       0.1859
     99 H34         5.8191   31.4092   21.2300 H           1 PRO       0.0632
    100 H35         7.3596   29.6330   22.0369 H           1 PRO       0.0450
    101 H36         8.0452   31.2214   21.8926 H           1 PRO       0.0450
    102 H37         9.4220   31.7232   19.7267 H           1 PRO       0.0557
    103 H38         8.5619   27.8064   21.0585 H           1 PRO       0.0557
    104 H39        11.1947   30.8545   18.3335 H           1 PRO       0.0599
    105 H40        10.3813   26.9637   19.7154 H           1 PRO       0.0599
    106 H41        11.6836   28.4756   18.3218 H           1 PRO       0.0559
    107 H42         7.5664   31.5047   18.7689 H           1 PRO       0.0839
    108 H43         6.9580   32.8116   19.8002 H           1 PRO       0.0839
    109 H44         4.7018   31.8269   18.8713 H           1 PRO       0.2036
    110 H45         5.6863   31.2670   17.6415 H           1 PRO       0.2036
    111 H46         5.1075   33.9857   18.5300 H           1 PRO       0.1099
    112 H47         7.6067   33.4166   17.4853 H           1 PRO       0.0354
    113 H48         6.8071   34.9571   17.5549 H           1 PRO       0.0354
    114 H49         7.7811   34.8642   15.4683 H           1 PRO       0.0380
    115 H50         6.0682   34.6446   15.1726 H           1 PRO       0.0380
    116 H51         8.7918   30.9057   15.0074 H           1 PRO       0.0340
    117 H52         7.6834   31.1940   16.3685 H           1 PRO       0.0340
    118 H53         9.1129   32.2597   16.1347 H           1 PRO       0.0340
    119 H54         5.2144   32.0546   15.5558 H           1 PRO       0.1884
    120 H55         4.0477   31.8861   13.7968 H           1 PRO       0.0797
    121 H56         1.6347   31.4800   13.9457 H           1 PRO       0.0277
    122 H57         1.5714   32.2496   15.5574 H           1 PRO       0.0277
    123 H58         2.4713   30.7189   15.3231 H           1 PRO       0.0277
    124 H59         2.9620   32.9689   12.1179 H           1 PRO       0.1877
    125 H60         3.5974   35.2066   11.3075 H           1 PRO       0.0750
    126 H61         2.0450   33.7928   10.0441 H           1 PRO       0.0484
    127 H62         1.5588   35.4762    9.9743 H           1 PRO       0.0484
    128 H63        -0.9084   35.7525   10.3614 H           1 PRO       0.2386
    129 H64         0.5529   32.4199   12.2302 H           1 PRO       0.0324
    130 H65        -2.8212   34.6266   11.5059 H           1 PRO       0.1149
@<TRIPOS>BOND
     1     1     2   1
     2     1     7   1
     3     2     3   1
     4     2     5   1
     5     3     4   2
     6     3     8  am
     7     5     6   1
     8     6     7   1
     9     8     9   1
    10     9    10   1
    11     9    12   1
    12    10    11   2
    13    10    18  am
    14    12    13   1
    15    13    14   1
    16    13    15   2
    17    14    16   1
    18    15    17   1
    19    16    17   2
    20    18    19   1
    21    19    20   1
    22    19    22   1
    23    20    21   2
    24    20    26  am
    25    22    23   1
    26    23    24   1
    27    23    25   1
    28    26    27   1
    29    27    28   1
    30    27    30   1
    31    28    29   2
    32    28    32  am
    33    30    31   1
    34    32    33   1
    35    33    34   1
    36    33    41   1
    37    34    35   1
    38    35    36  ar
    39    35    37  ar
    40    36    38  ar
    41    37    39  ar
    42    38    40  ar
    43    39    40  ar
    44    41    42   1
    45    42    43   1
    46    43    44   1
    47    43    48   1
    48    44    45   1
    49    45    46   1
    50    46    47   1
    51    48    49   2
    52    48    50  am
    53    50    51   1
    54    51    52   1
    55    51    54   1
    56    52    53   2
    57    52    55  am
    58    55    56   1
    59    56    57   1
    60    56    59   1
    61    57    58  ar
    62    57    65  ar
    63    59    60   1
    64    60    61   1
    65    60    62   2
    66    61    63   1
    67    62    64   1
    68    63    64   2
    69     1    66   1
    70     1    67   1
    71     2    68   1
    72     5    69   1
    73     5    70   1
    74     6    71   1
    75     6    72   1
    76     7    73   1
    77     7    74   1
    78     8    75   1
    79     9    76   1
    80    12    77   1
    81    12    78   1
    82    14    79   1
    83    15    80   1
    84    16    81   1
    85    18    82   1
    86    19    83   1
    87    22    84   1
    88    22    85   1
    89    23    86   1
    90    24    87   1
    91    24    88   1
    92    24    89   1
    93    25    90   1
    94    25    91   1
    95    25    92   1
    96    26    93   1
    97    27    94   1
    98    30    95   1
    99    30    96   1
   100    31    97   1
   101    32    98   1
   102    33    99   1
   103    34   100   1
   104    34   101   1
   105    36   102   1
   106    37   103   1
   107    38   104   1
   108    39   105   1
   109    40   106   1
   110    41   107   1
   111    41   108   1
   112    42   109   1
   113    42   110   1
   114    43   111   1
   115    44   112   1
   116    44   113   1
   117    45   114   1
   118    45   115   1
   119    47   116   1
   120    47   117   1
   121    47   118   1
   122    50   119   1
   123    51   120   1
   124    54   121   1
   125    54   122   1
   126    54   123   1
   127    55   124   1
   128    56   125   1
   129    59   126   1
   130    59   127   1
   131    61   128   1
   132    62   129   1
   133    63   130   1
@<TRIPOS>SUBSTRUCTURE
     1  PRO      2

