@<TRIPOS>MOLECULE
3uri_ligand_054
   130   133
SMALL
GAST_HUCK
****
This file was generated by PARSER (from files_GN.cpp)

@<TRIPOS>ATOM
      1 N           1.6796   19.8429   22.6209 N.4         1 PRO       0.2461
      2 CA          0.9819   20.8453   21.7963 C.3         1 PRO       0.0670
      3 C           1.7980   21.9855   21.4172 C.2         1 PRO       0.2269
      4 O           2.4478   22.5727   22.2811 O.2         1 PRO      -0.3907
      5 CB         -0.2313   21.2310   22.6673 C.3         1 PRO       0.0127
      6 CG         -0.5967   19.9260   23.3974 C.3         1 PRO      -0.0053
      7 CD          0.6479   19.0256   23.2713 C.3         1 PRO      -0.0313
      8 N           1.7213   22.4625   20.1789 N.am        1 PRO      -0.2592
      9 CA          2.5087   23.5153   19.5776 C.3         1 PRO       0.1422
     10 C           3.0401   24.4797   20.5434 C.2         1 PRO       0.2060
     11 O           2.2581   25.0506   21.2952 O.2         1 PRO      -0.3942
     12 CB          1.7164   24.2300   18.4359 C.3         1 PRO       0.0427
     13 CG          0.3708   24.7110   18.8185 C.2         1 PRO       0.0561
     14 ND1         0.0170   25.9904   19.0068 N.pl3       1 PRO      -0.2623
     15 CD2        -0.7750   23.9502   19.0615 C.2         1 PRO      -0.0276
     16 CE1        -1.2687   26.0232   19.3750 C.2         1 PRO       0.0875
     17 NE2        -1.7710   24.7751   19.4094 N.2         1 PRO      -0.3437
     18 N           4.3498   24.6519   20.6309 N.am        1 PRO      -0.2636
     19 CA          5.0537   25.4501   21.5937 C.3         1 PRO       0.1312
     20 C           6.1865   26.0748   20.9209 C.2         1 PRO       0.2040
     21 O           7.3426   25.8531   21.2745 O.2         1 PRO      -0.3944
     22 CB          5.3754   24.5392   22.8381 C.3         1 PRO      -0.0101
     23 CG          4.9114   25.1071   24.2205 C.3         1 PRO      -0.0425
     24 CD1         3.3576   25.1512   24.3648 C.3         1 PRO      -0.0625
     25 CD2         5.5226   24.2774   25.3922 C.3         1 PRO      -0.0625
     26 N           5.9628   26.9260   19.9201 N.am        1 PRO      -0.2616
     27 CA          6.9500   27.6607   19.1743 C.3         1 PRO       0.1538
     28 C           7.3228   28.8935   19.8582 C.2         1 PRO       0.2045
     29 O           8.4995   29.2438   19.8180 O.2         1 PRO      -0.3944
     30 CB          6.4294   27.9566   17.7334 C.3         1 PRO       0.0843
     31 OG          6.6417   29.3230   17.3632 O.3         1 PRO      -0.3903
     32 N           6.3873   29.6698   20.3936 N.am        1 PRO      -0.2748
     33 C1          6.5309   31.0148   20.8808 C.3         1 PRO       0.0911
     34 C2          7.5450   31.1845   22.0572 C.3         1 PRO       0.0089
     35 C3          7.4837   30.0934   23.0665 C.ar        1 PRO      -0.0406
     36 C4          8.2785   28.9283   22.9382 C.ar        1 PRO      -0.0603
     37 C5          6.6310   30.2081   24.1908 C.ar        1 PRO      -0.0603
     38 C6          8.2223   27.9075   23.9039 C.ar        1 PRO      -0.0686
     39 C7          6.5806   29.1917   25.1609 C.ar        1 PRO      -0.0686
     40 C8          7.3794   28.0431   25.0199 C.ar        1 PRO      -0.0687
     41 C9          6.8385   31.9802   19.7005 C.3         1 PRO      -0.0062
     42 N2          5.8700   31.8046   18.5833 N.4         1 PRO       0.2479
     43 C10         5.7796   32.8929   17.5697 C.3         1 PRO       0.0676
     44 C11         6.8975   32.7855   16.4851 C.3         1 PRO       0.0169
     45 C12         6.9778   33.9721   15.4863 C.3         1 PRO       0.0007
     46 SD          5.5492   34.2117   14.3890 S.3         1 PRO      -0.1638
     47 C13         5.5972   32.6613   13.4630 C.3         1 PRO      -0.0181
     48 C           4.4209   32.8832   17.0280 C.2         1 PRO       0.2268
     49 O           3.6630   33.7924   17.3482 O.2         1 PRO      -0.3907
     50 N           3.9782   31.8649   16.2847 N.am        1 PRO      -0.2613
     51 CA          2.6806   31.6928   15.6708 C.3         1 PRO       0.1283
     52 C           2.3465   32.7878   14.7575 C.2         1 PRO       0.2032
     53 O           2.4669   33.9292   15.1762 O.2         1 PRO      -0.3944
     54 CB          1.5581   31.4384   16.7141 C.3         1 PRO      -0.0244
     55 N           2.0163   32.5546   13.4899 N.am        1 PRO      -0.2677
     56 CA          1.8604   33.4569   12.3756 C.3         1 PRO       0.1056
     57 C           1.8698   34.9247   12.6302 C.2         1 PRO       0.0621
     58 O           0.9316   35.5143   13.4097 O.co2       1 PRO      -0.5664
     59 CB          0.6635   33.0256   11.4757 C.3         1 PRO       0.0372
     60 CG         -0.6136   33.7240   11.7410 C.2         1 PRO       0.0555
     61 ND1        -1.0174   34.8491   11.1293 N.pl3       1 PRO      -0.2623
     62 CD2        -1.6034   33.4128   12.6685 C.2         1 PRO      -0.0276
     63 CE1        -2.1853   35.2318   11.6667 C.2         1 PRO       0.0875
     64 NE2        -2.5658   34.3488   12.6109 N.2         1 PRO      -0.3437
     65 OXT         2.8509   35.7099   12.1297 O.co2       1 PRO      -0.5664
     66 H1          2.2299   20.3199   23.3405 H           1 PRO       0.2035
     67 H2          2.2967   19.2651   22.0480 H           1 PRO       0.2035
     68 H3          0.6336   20.3448   20.8833 H           1 PRO       0.1099
     69 H4         -1.0608   21.6035   22.0588 H           1 PRO       0.0347
     70 H5          0.0405   21.9974   23.4012 H           1 PRO       0.0347
     71 H6         -1.4588   19.4532   22.9211 H           1 PRO       0.0320
     72 H7         -0.8404   20.1218   24.4437 H           1 PRO       0.0320
     73 H8          1.0020   18.6853   24.2441 H           1 PRO       0.0814
     74 H9          0.4305   18.1559   22.6514 H           1 PRO       0.0814
     75 H10         1.1208   21.9822   19.5758 H           1 PRO       0.1886
     76 H11         3.3446   22.9990   19.0819 H           1 PRO       0.0824
     77 H12         1.6105   23.5430   17.5889 H           1 PRO       0.0491
     78 H13         2.3030   25.0849   18.0799 H           1 PRO       0.0491
     79 H14         0.6055   26.7572   18.9182 H           1 PRO       0.2386
     80 H15        -0.8510   22.9342   18.9877 H           1 PRO       0.0324
     81 H16        -1.7928   26.8697   19.5949 H           1 PRO       0.1149
     82 H17         4.8951   24.1454   20.0104 H           1 PRO       0.1883
     83 H18         4.4203   26.2839   21.9153 H           1 PRO       0.0800
     84 H19         6.4490   24.3349   22.8905 H           1 PRO       0.0315
     85 H20         4.9064   23.5567   22.7321 H           1 PRO       0.0315
     86 H21         5.2838   26.1325   24.3208 H           1 PRO       0.0298
     87 H22         3.0733   25.4716   25.3757 H           1 PRO       0.0232
     88 H23         2.9285   24.1596   24.1762 H           1 PRO       0.0232
     89 H24         2.9274   25.8646   23.6572 H           1 PRO       0.0232
     90 H25         6.6222   24.3166   25.3585 H           1 PRO       0.0232
     91 H26         5.2051   23.2264   25.3202 H           1 PRO       0.0232
     92 H27         5.1988   24.6786   26.3652 H           1 PRO       0.0232
     93 H28         5.0340   27.0544   19.6620 H           1 PRO       0.1884
     94 H29         7.8351   27.0192   19.0654 H           1 PRO       0.0823
     95 H30         5.3549   27.7289   17.6575 H           1 PRO       0.0606
     96 H31         6.9737   27.3175   17.0196 H           1 PRO       0.0606
     97 H32         6.3829   29.3569   16.4200 H           1 PRO       0.2097
     98 H33         5.4844   29.3058   20.4072 H           1 PRO       0.1859
     99 H34         5.5448   31.2981   21.2615 H           1 PRO       0.0632
    100 H35         7.3535   32.1319   22.5664 H           1 PRO       0.0450
    101 H36         8.5561   31.2643   21.6504 H           1 PRO       0.0450
    102 H37         8.9092   28.8172   22.1402 H           1 PRO       0.0557
    103 H38         6.0506   31.0423   24.3165 H           1 PRO       0.0557
    104 H39         8.8000   27.0697   23.8004 H           1 PRO       0.0599
    105 H40         5.9625   29.2892   25.9703 H           1 PRO       0.0599
    106 H41         7.3447   27.3083   25.7278 H           1 PRO       0.0559
    107 H42         7.8503   31.7937   19.3304 H           1 PRO       0.0839
    108 H43         6.7887   33.0068   20.0765 H           1 PRO       0.0839
    109 H44         4.9426   31.7134   19.0007 H           1 PRO       0.2036
    110 H45         6.0873   30.9263   18.0974 H           1 PRO       0.2036
    111 H46         5.9298   33.8449   18.0924 H           1 PRO       0.1099
    112 H47         6.8113   31.8390   15.9461 H           1 PRO       0.0354
    113 H48         7.8608   32.7651   17.0016 H           1 PRO       0.0354
    114 H49         7.8687   33.8455   14.8646 H           1 PRO       0.0380
    115 H50         7.1097   34.8984   16.0538 H           1 PRO       0.0380
    116 H51         4.9538   32.7535   12.5891 H           1 PRO       0.0340
    117 H52         5.2291   31.8451   14.0808 H           1 PRO       0.0340
    118 H53         6.6078   32.4365   13.1295 H           1 PRO       0.0340
    119 H54         4.6234   31.1600   16.1012 H           1 PRO       0.1884
    120 H55         2.7690   30.7658   15.0925 H           1 PRO       0.0797
    121 H56         0.6326   31.1450   16.2119 H           1 PRO       0.0277
    122 H57         1.3526   32.3289   17.3096 H           1 PRO       0.0277
    123 H58         1.8508   30.6330   17.3931 H           1 PRO       0.0277
    124 H59         1.9578   31.6146   13.2557 H           1 PRO       0.1877
    125 H60         2.7469   33.2634   11.7733 H           1 PRO       0.0750
    126 H61         0.4919   31.9484   11.5654 H           1 PRO       0.0484
    127 H62         0.9363   33.2156   10.4326 H           1 PRO       0.0484
    128 H63        -0.5158   35.3332   10.4461 H           1 PRO       0.2386
    129 H64        -1.5921   32.6210   13.3136 H           1 PRO       0.0324
    130 H65        -2.7021   36.0759   11.3961 H           1 PRO       0.1149
@<TRIPOS>BOND
     1     1     2   1
     2     1     7   1
     3     2     3   1
     4     2     5   1
     5     3     4   2
     6     3     8  am
     7     5     6   1
     8     6     7   1
     9     8     9   1
    10     9    10   1
    11     9    12   1
    12    10    11   2
    13    10    18  am
    14    12    13   1
    15    13    14   1
    16    13    15   2
    17    14    16   1
    18    15    17   1
    19    16    17   2
    20    18    19   1
    21    19    20   1
    22    19    22   1
    23    20    21   2
    24    20    26  am
    25    22    23   1
    26    23    24   1
    27    23    25   1
    28    26    27   1
    29    27    28   1
    30    27    30   1
    31    28    29   2
    32    28    32  am
    33    30    31   1
    34    32    33   1
    35    33    34   1
    36    33    41   1
    37    34    35   1
    38    35    36  ar
    39    35    37  ar
    40    36    38  ar
    41    37    39  ar
    42    38    40  ar
    43    39    40  ar
    44    41    42   1
    45    42    43   1
    46    43    44   1
    47    43    48   1
    48    44    45   1
    49    45    46   1
    50    46    47   1
    51    48    49   2
    52    48    50  am
    53    50    51   1
    54    51    52   1
    55    51    54   1
    56    52    53   2
    57    52    55  am
    58    55    56   1
    59    56    57   1
    60    56    59   1
    61    57    58  ar
    62    57    65  ar
    63    59    60   1
    64    60    61   1
    65    60    62   2
    66    61    63   1
    67    62    64   1
    68    63    64   2
    69     1    66   1
    70     1    67   1
    71     2    68   1
    72     5    69   1
    73     5    70   1
    74     6    71   1
    75     6    72   1
    76     7    73   1
    77     7    74   1
    78     8    75   1
    79     9    76   1
    80    12    77   1
    81    12    78   1
    82    14    79   1
    83    15    80   1
    84    16    81   1
    85    18    82   1
    86    19    83   1
    87    22    84   1
    88    22    85   1
    89    23    86   1
    90    24    87   1
    91    24    88   1
    92    24    89   1
    93    25    90   1
    94    25    91   1
    95    25    92   1
    96    26    93   1
    97    27    94   1
    98    30    95   1
    99    30    96   1
   100    31    97   1
   101    32    98   1
   102    33    99   1
   103    34   100   1
   104    34   101   1
   105    36   102   1
   106    37   103   1
   107    38   104   1
   108    39   105   1
   109    40   106   1
   110    41   107   1
   111    41   108   1
   112    42   109   1
   113    42   110   1
   114    43   111   1
   115    44   112   1
   116    44   113   1
   117    45   114   1
   118    45   115   1
   119    47   116   1
   120    47   117   1
   121    47   118   1
   122    50   119   1
   123    51   120   1
   124    54   121   1
   125    54   122   1
   126    54   123   1
   127    55   124   1
   128    56   125   1
   129    59   126   1
   130    59   127   1
   131    61   128   1
   132    62   129   1
   133    63   130   1
@<TRIPOS>SUBSTRUCTURE
     1  PRO      2

