@<TRIPOS>MOLECULE
3uri_ligand_063
   130   133
SMALL
GAST_HUCK
****
This file was generated by PARSER (from files_GN.cpp)

@<TRIPOS>ATOM
      1 N          -2.9498   26.7163   19.5471 N.4         1 PRO       0.2461
      2 CA         -2.9130   25.2660   19.8230 C.3         1 PRO       0.0670
      3 C          -1.6109   24.6611   19.5525 C.2         1 PRO       0.2269
      4 O          -1.5622   23.5188   19.1204 O.2         1 PRO      -0.3907
      5 CB         -4.1024   24.7075   19.0038 C.3         1 PRO       0.0127
      6 CG         -5.1549   25.8201   19.0891 C.3         1 PRO      -0.0053
      7 CD         -4.3297   27.1137   19.2239 C.3         1 PRO      -0.0313
      8 N          -0.5002   25.2850   19.9389 N.am        1 PRO      -0.2592
      9 CA          0.8516   24.7896   19.8677 C.3         1 PRO       0.1422
     10 C           1.7759   25.6006   20.6695 C.2         1 PRO       0.2060
     11 O           1.4426   26.7188   21.0428 O.2         1 PRO      -0.3942
     12 CB          1.3267   24.6363   18.3874 C.3         1 PRO       0.0427
     13 CG          1.5795   25.9112   17.6863 C.2         1 PRO       0.0561
     14 ND1         0.7900   26.5147   16.7877 N.pl3       1 PRO      -0.2623
     15 CD2         2.7009   26.7233   17.8182 C.2         1 PRO      -0.0276
     16 CE1         1.3903   27.6437   16.3842 C.2         1 PRO       0.0875
     17 NE2         2.5772   27.7857   17.0103 N.2         1 PRO      -0.3437
     18 N           2.9737   25.1177   20.9915 N.am        1 PRO      -0.2636
     19 CA          3.9823   25.7617   21.7914 C.3         1 PRO       0.1312
     20 C           5.0875   26.1424   20.9140 C.2         1 PRO       0.2040
     21 O           5.9348   25.3075   20.6211 O.2         1 PRO      -0.3944
     22 CB          4.3870   24.7861   22.9465 C.3         1 PRO      -0.0101
     23 CG          5.3161   25.3759   24.0579 C.3         1 PRO      -0.0425
     24 CD1         4.5605   26.3518   25.0082 C.3         1 PRO      -0.0625
     25 CD2         5.9663   24.2375   24.8945 C.3         1 PRO      -0.0625
     26 N           5.1001   27.3414   20.3414 N.am        1 PRO      -0.2616
     27 CA          6.0844   27.8996   19.4458 C.3         1 PRO       0.1538
     28 C           6.7900   28.9989   20.0918 C.2         1 PRO       0.2045
     29 O           8.0130   29.0344   20.0072 O.2         1 PRO      -0.3944
     30 CB          5.4145   28.4127   18.1396 C.3         1 PRO       0.0843
     31 OG          6.2138   29.3902   17.4718 O.3         1 PRO      -0.3903
     32 N           6.1040   30.0262   20.5784 N.am        1 PRO      -0.2748
     33 C1          6.6071   31.3050   20.9856 C.3         1 PRO       0.0911
     34 C2          7.7537   31.2321   22.0476 C.3         1 PRO       0.0089
     35 C3          7.6018   30.1005   23.0083 C.ar        1 PRO      -0.0406
     36 C4          8.3922   28.9262   22.8862 C.ar        1 PRO      -0.0603
     37 C5          6.6551   30.1652   24.0598 C.ar        1 PRO      -0.0603
     38 C6          8.2603   27.8682   23.8025 C.ar        1 PRO      -0.0686
     39 C7          6.5136   29.0983   24.9703 C.ar        1 PRO      -0.0686
     40 C8          7.3214   27.9529   24.8499 C.ar        1 PRO      -0.0687
     41 C9          6.9776   32.1726   19.7445 C.3         1 PRO      -0.0062
     42 N2          5.9813   31.9936   18.6536 N.4         1 PRO       0.2479
     43 C10         5.9129   33.0085   17.5661 C.3         1 PRO       0.0676
     44 C11         7.0332   32.8180   16.4964 C.3         1 PRO       0.0169
     45 C12         7.1160   33.9169   15.3960 C.3         1 PRO       0.0007
     46 SD          5.6352   34.1832   14.3749 S.3         1 PRO      -0.1638
     47 C13         5.6455   32.6526   13.4142 C.3         1 PRO      -0.0181
     48 C           4.5516   32.9448   17.0298 C.2         1 PRO       0.2268
     49 O           3.7515   33.8038   17.3804 O.2         1 PRO      -0.3907
     50 N           4.1624   31.9303   16.2527 N.am        1 PRO      -0.2613
     51 CA          2.8682   31.6945   15.6590 C.3         1 PRO       0.1283
     52 C           2.4509   32.7752   14.7609 C.2         1 PRO       0.2032
     53 O           2.5465   33.9187   15.1734 O.2         1 PRO      -0.3944
     54 CB          1.7968   31.3396   16.7225 C.3         1 PRO      -0.0244
     55 N           2.0401   32.5266   13.5181 N.am        1 PRO      -0.2677
     56 CA          1.7856   33.4255   12.4146 C.3         1 PRO       0.1056
     57 C           1.7948   34.8933   12.6598 C.2         1 PRO       0.0621
     58 O           0.8711   35.4877   13.4536 O.co2       1 PRO      -0.5664
     59 CB          0.5365   32.9710   11.6019 C.3         1 PRO       0.0372
     60 CG         -0.7273   33.6730   11.9086 C.2         1 PRO       0.0555
     61 ND1        -1.2848   34.6193   11.1391 N.pl3       1 PRO      -0.2623
     62 CD2        -1.5602   33.5283   13.0128 C.2         1 PRO      -0.0276
     63 CE1        -2.4124   35.0387   11.7270 C.2         1 PRO       0.0875
     64 NE2        -2.5895   34.3787   12.8850 N.2         1 PRO      -0.3437
     65 OXT         2.7657   35.6777   12.1397 O.co2       1 PRO      -0.5664
     66 H1         -2.3473   26.9315   18.7506 H           1 PRO       0.2035
     67 H2         -2.6187   27.2337   20.3640 H           1 PRO       0.2035
     68 H3         -3.1240   25.1228   20.8881 H           1 PRO       0.1099
     69 H4         -4.4773   23.7698   19.4205 H           1 PRO       0.0347
     70 H5         -3.8182   24.5466   17.9600 H           1 PRO       0.0347
     71 H6         -5.7797   25.6777   19.9748 H           1 PRO       0.0320
     72 H7         -5.7941   25.8366   18.2015 H           1 PRO       0.0320
     73 H8         -4.3276   27.6719   18.2844 H           1 PRO       0.0814
     74 H9         -4.7306   27.7516   20.0147 H           1 PRO       0.0814
     75 H10        -0.6218   26.1528   20.3518 H           1 PRO       0.1886
     76 H11         0.8556   23.7918   20.3195 H           1 PRO       0.0824
     77 H12         0.5761   24.0819   17.8195 H           1 PRO       0.0491
     78 H13         2.2398   24.0363   18.3462 H           1 PRO       0.0491
     79 H14        -0.0673   26.1848   16.4905 H           1 PRO       0.2386
     80 H15         3.4941   26.5360   18.4257 H           1 PRO       0.0324
     81 H16         0.9981   28.2985   15.6993 H           1 PRO       0.1149
     82 H17         3.1836   24.2288   20.6701 H           1 PRO       0.1883
     83 H18         3.5814   26.6663   22.2559 H           1 PRO       0.0800
     84 H19         4.8616   23.9078   22.4990 H           1 PRO       0.0315
     85 H20         3.4759   24.4232   23.4335 H           1 PRO       0.0315
     86 H21         6.1312   25.9339   23.5828 H           1 PRO       0.0298
     87 H22         5.2058   26.6641   25.8338 H           1 PRO       0.0232
     88 H23         3.6743   25.8697   25.4318 H           1 PRO       0.0232
     89 H24         4.2466   27.2516   24.4756 H           1 PRO       0.0232
     90 H25         6.5381   23.5697   24.2477 H           1 PRO       0.0232
     91 H26         5.1973   23.6522   25.4077 H           1 PRO       0.0232
     92 H27         6.6476   24.6525   25.6388 H           1 PRO       0.0232
     93 H28         4.3424   27.9140   20.5406 H           1 PRO       0.1884
     94 H29         6.8171   27.1346   19.1586 H           1 PRO       0.0823
     95 H30         4.4328   28.8518   18.3547 H           1 PRO       0.0606
     96 H31         5.2757   27.5778   17.4498 H           1 PRO       0.0606
     97 H32         5.8896   29.4006   16.5493 H           1 PRO       0.2097
     98 H33         5.1399   29.9277   20.6201 H           1 PRO       0.1859
     99 H34         5.7647   31.8124   21.4667 H           1 PRO       0.0632
    100 H35         7.7861   32.1674   22.6135 H           1 PRO       0.0450
    101 H36         8.7140   31.1598   21.5302 H           1 PRO       0.0450
    102 H37         9.0830   28.8461   22.1331 H           1 PRO       0.0557
    103 H38         6.0669   30.9964   24.1737 H           1 PRO       0.0557
    104 H39         8.8564   27.0426   23.7191 H           1 PRO       0.0599
    105 H40         5.8260   29.1584   25.7246 H           1 PRO       0.0599
    106 H41         7.2367   27.1907   25.5237 H           1 PRO       0.0559
    107 H42         7.9651   31.8860   19.3726 H           1 PRO       0.0839
    108 H43         7.0199   33.2230   20.0427 H           1 PRO       0.0839
    109 H44         5.0603   31.9815   19.0911 H           1 PRO       0.2036
    110 H45         6.1361   31.0761   18.2232 H           1 PRO       0.2036
    111 H46         6.0584   33.9947   18.0203 H           1 PRO       0.1099
    112 H47         6.9553   31.8319   16.0316 H           1 PRO       0.0354
    113 H48         7.9947   32.8370   17.0091 H           1 PRO       0.0354
    114 H49         7.9447   33.6812   14.7280 H           1 PRO       0.0380
    115 H50         7.3487   34.8689   15.8770 H           1 PRO       0.0380
    116 H51         4.9309   32.7434   12.5963 H           1 PRO       0.0340
    117 H52         5.3533   31.8141   14.0438 H           1 PRO       0.0340
    118 H53         6.6355   32.4682   12.9976 H           1 PRO       0.0340
    119 H54         4.8462   31.2692   16.0440 H           1 PRO       0.1884
    120 H55         2.9969   30.7858   15.0598 H           1 PRO       0.0797
    121 H56         0.8793   31.0055   16.2352 H           1 PRO       0.0277
    122 H57         1.5663   32.2005   17.3505 H           1 PRO       0.0277
    123 H58         2.1611   30.5319   17.3612 H           1 PRO       0.0277
    124 H59         1.9875   31.5847   13.2862 H           1 PRO       0.1877
    125 H60         2.6384   33.2423   11.7579 H           1 PRO       0.0750
    126 H61         0.3763   31.9012   11.7513 H           1 PRO       0.0484
    127 H62         0.7524   33.1098   10.5380 H           1 PRO       0.0484
    128 H63        -0.9238   34.9517   10.3021 H           1 PRO       0.2386
    129 H64        -1.4141   32.8993   13.8026 H           1 PRO       0.0324
    130 H65        -3.0361   35.7555   11.3554 H           1 PRO       0.1149
@<TRIPOS>BOND
     1     1     2   1
     2     1     7   1
     3     2     3   1
     4     2     5   1
     5     3     4   2
     6     3     8  am
     7     5     6   1
     8     6     7   1
     9     8     9   1
    10     9    10   1
    11     9    12   1
    12    10    11   2
    13    10    18  am
    14    12    13   1
    15    13    14   1
    16    13    15   2
    17    14    16   1
    18    15    17   1
    19    16    17   2
    20    18    19   1
    21    19    20   1
    22    19    22   1
    23    20    21   2
    24    20    26  am
    25    22    23   1
    26    23    24   1
    27    23    25   1
    28    26    27   1
    29    27    28   1
    30    27    30   1
    31    28    29   2
    32    28    32  am
    33    30    31   1
    34    32    33   1
    35    33    34   1
    36    33    41   1
    37    34    35   1
    38    35    36  ar
    39    35    37  ar
    40    36    38  ar
    41    37    39  ar
    42    38    40  ar
    43    39    40  ar
    44    41    42   1
    45    42    43   1
    46    43    44   1
    47    43    48   1
    48    44    45   1
    49    45    46   1
    50    46    47   1
    51    48    49   2
    52    48    50  am
    53    50    51   1
    54    51    52   1
    55    51    54   1
    56    52    53   2
    57    52    55  am
    58    55    56   1
    59    56    57   1
    60    56    59   1
    61    57    58  ar
    62    57    65  ar
    63    59    60   1
    64    60    61   1
    65    60    62   2
    66    61    63   1
    67    62    64   1
    68    63    64   2
    69     1    66   1
    70     1    67   1
    71     2    68   1
    72     5    69   1
    73     5    70   1
    74     6    71   1
    75     6    72   1
    76     7    73   1
    77     7    74   1
    78     8    75   1
    79     9    76   1
    80    12    77   1
    81    12    78   1
    82    14    79   1
    83    15    80   1
    84    16    81   1
    85    18    82   1
    86    19    83   1
    87    22    84   1
    88    22    85   1
    89    23    86   1
    90    24    87   1
    91    24    88   1
    92    24    89   1
    93    25    90   1
    94    25    91   1
    95    25    92   1
    96    26    93   1
    97    27    94   1
    98    30    95   1
    99    30    96   1
   100    31    97   1
   101    32    98   1
   102    33    99   1
   103    34   100   1
   104    34   101   1
   105    36   102   1
   106    37   103   1
   107    38   104   1
   108    39   105   1
   109    40   106   1
   110    41   107   1
   111    41   108   1
   112    42   109   1
   113    42   110   1
   114    43   111   1
   115    44   112   1
   116    44   113   1
   117    45   114   1
   118    45   115   1
   119    47   116   1
   120    47   117   1
   121    47   118   1
   122    50   119   1
   123    51   120   1
   124    54   121   1
   125    54   122   1
   126    54   123   1
   127    55   124   1
   128    56   125   1
   129    59   126   1
   130    59   127   1
   131    61   128   1
   132    62   129   1
   133    63   130   1
@<TRIPOS>SUBSTRUCTURE
     1  PRO      2

