@<TRIPOS>MOLECULE
3uri_ligand_013
   130   133
SMALL
GAST_HUCK
****
This file was generated by PARSER (from files_GN.cpp)

@<TRIPOS>ATOM
      1 N           5.5952   32.0740   21.2168 N.4         1 PRO       0.2461
      2 CA          5.4730   30.6079   21.2628 C.3         1 PRO       0.0670
      3 C           5.7222   29.9940   19.9658 C.2         1 PRO       0.2269
      4 O           6.5788   29.1231   19.8731 O.2         1 PRO      -0.3907
      5 CB          4.0533   30.4046   21.8417 C.3         1 PRO       0.0127
      6 CG          3.8332   31.6173   22.7717 C.3         1 PRO      -0.0053
      7 CD          4.9883   32.5875   22.4479 C.3         1 PRO      -0.0313
      8 N           5.0345   30.3905   18.9004 N.am        1 PRO      -0.2592
      9 CA          5.2056   29.9851   17.5289 C.3         1 PRO       0.1422
     10 C           5.1462   31.2348   16.7781 C.2         1 PRO       0.2060
     11 O           4.0520   31.7170   16.5045 O.2         1 PRO      -0.3942
     12 CB          4.1801   28.8951   17.0398 C.3         1 PRO       0.0427
     13 CG          3.3468   28.2899   18.0994 C.2         1 PRO       0.0561
     14 ND1         3.3425   27.0002   18.4636 N.pl3       1 PRO      -0.2623
     15 CD2         2.4208   28.9291   18.9192 C.2         1 PRO      -0.0276
     16 CE1         2.4666   26.8452   19.4680 C.2         1 PRO       0.0875
     17 NE2         1.8905   28.0227   19.7550 N.2         1 PRO      -0.3437
     18 N           6.2583   31.9405   16.6139 N.am        1 PRO      -0.2636
     19 CA          6.3533   33.3005   16.1684 C.3         1 PRO       0.1312
     20 C           6.0288   33.3668   14.7518 C.2         1 PRO       0.2040
     21 O           6.6165   32.5856   14.0076 O.2         1 PRO      -0.3944
     22 CB          7.7598   33.8978   16.4893 C.3         1 PRO      -0.0101
     23 CG          8.2338   33.8855   17.9853 C.3         1 PRO      -0.0425
     24 CD1         7.0573   33.9347   19.0075 C.3         1 PRO      -0.0625
     25 CD2         9.2118   32.7256   18.3206 C.3         1 PRO      -0.0625
     26 N           5.1022   34.2209   14.3290 N.am        1 PRO      -0.2616
     27 CA          4.5082   34.4503   13.0325 C.3         1 PRO       0.1538
     28 C           3.0547   34.5624   13.2030 C.2         1 PRO       0.2045
     29 O           2.6531   35.3936   14.0103 O.2         1 PRO      -0.3944
     30 CB          4.9556   33.4795   11.9034 C.3         1 PRO       0.0843
     31 OG          4.7568   32.1321   12.3317 O.3         1 PRO      -0.3903
     32 N           2.1718   33.8961   12.4576 N.am        1 PRO      -0.2748
     33 C1          0.7550   34.1408   12.3544 C.3         1 PRO       0.0911
     34 C2          0.4667   34.7525   10.9468 C.3         1 PRO       0.0089
     35 C3          0.9176   36.1653   10.8194 C.ar        1 PRO      -0.0406
     36 C4         -0.0236   37.2254   10.8018 C.ar        1 PRO      -0.0603
     37 C5          2.2947   36.4914   10.7501 C.ar        1 PRO      -0.0603
     38 C6          0.3941   38.5620   10.7143 C.ar        1 PRO      -0.0686
     39 C7          2.7159   37.8295   10.6667 C.ar        1 PRO      -0.0686
     40 C8          1.7659   38.8699   10.6436 C.ar        1 PRO      -0.0687
     41 C9         -0.0518   32.8280   12.5612 C.3         1 PRO      -0.0062
     42 N2         -0.0883   32.3907   13.9822 N.4         1 PRO       0.2479
     43 C10        -1.3685   31.7727   14.4497 C.3         1 PRO       0.0676
     44 C11        -1.0900   30.8454   15.6788 C.3         1 PRO       0.0169
     45 C12        -0.5677   29.4369   15.2858 C.3         1 PRO       0.0007
     46 SD         -0.1264   28.4809   16.7585 S.3         1 PRO      -0.1638
     47 C13         1.0456   27.3548   15.9753 C.3         1 PRO      -0.0181
     48 C          -2.4411   32.7288   14.7371 C.2         1 PRO       0.2268
     49 O          -3.4030   32.2887   15.3549 O.2         1 PRO      -0.3907
     50 N          -2.4296   33.9967   14.3433 N.am        1 PRO      -0.2613
     51 CA         -3.5312   34.9259   14.3957 C.3         1 PRO       0.1283
     52 C          -3.0042   36.2700   14.6142 C.2         1 PRO       0.2032
     53 O          -3.1276   37.1065   13.7294 O.2         1 PRO      -0.3944
     54 CB         -4.6253   34.5941   15.4558 C.3         1 PRO      -0.0244
     55 N          -2.4684   36.5864   15.7922 N.am        1 PRO      -0.2677
     56 CA         -2.0661   37.8949   16.2288 C.3         1 PRO       0.1056
     57 C          -0.7470   38.2065   15.6350 C.2         1 PRO       0.0621
     58 O           0.0835   39.1336   16.1690 O.co2       1 PRO      -0.5664
     59 CB         -2.0809   37.9081   17.7861 C.3         1 PRO       0.0372
     60 CG         -3.3340   37.3722   18.3504 C.2         1 PRO       0.0555
     61 ND1        -4.5745   37.7556   17.9988 N.pl3       1 PRO      -0.2623
     62 CD2        -3.4875   36.3850   19.3119 C.2         1 PRO      -0.0276
     63 CE1        -5.4515   37.0360   18.7105 C.2         1 PRO       0.0875
     64 NE2        -4.7969   36.1863   19.5232 N.2         1 PRO      -0.3437
     65 OXT        -0.3991   37.6735   14.4444 O.co2       1 PRO      -0.5664
     66 H1          5.0607   32.4323   20.4220 H           1 PRO       0.2035
     67 H2          6.5739   32.3558   21.1455 H           1 PRO       0.2035
     68 H3          6.1987   30.2292   21.9927 H           1 PRO       0.1099
     69 H4          3.9751   29.4540   22.3839 H           1 PRO       0.0347
     70 H5          3.2961   30.4216   21.0529 H           1 PRO       0.0347
     71 H6          3.8677   31.3164   23.8233 H           1 PRO       0.0320
     72 H7          2.8651   32.0849   22.5690 H           1 PRO       0.0320
     73 H8          4.6300   33.6069   22.2977 H           1 PRO       0.0814
     74 H9          5.7316   32.5808   23.2460 H           1 PRO       0.0814
     75 H10         4.3511   31.0632   19.0563 H           1 PRO       0.1886
     76 H11         6.2036   29.5541   17.3951 H           1 PRO       0.0824
     77 H12         4.7353   28.0861   16.5552 H           1 PRO       0.0491
     78 H13         3.5037   29.2926   16.2797 H           1 PRO       0.0491
     79 H14         3.8811   26.2966   18.0646 H           1 PRO       0.2386
     80 H15         2.1749   29.9201   18.8910 H           1 PRO       0.0324
     81 H16         2.2668   25.9628   19.9366 H           1 PRO       0.1149
     82 H17         7.0856   31.5182   16.8863 H           1 PRO       0.1883
     83 H18         5.6310   33.9078   16.7287 H           1 PRO       0.0800
     84 H19         7.7498   34.9422   16.1599 H           1 PRO       0.0315
     85 H20         8.5071   33.3847   15.8810 H           1 PRO       0.0315
     86 H21         8.8088   34.8089   18.1359 H           1 PRO       0.0298
     87 H22         7.4335   34.0062   20.0311 H           1 PRO       0.0232
     88 H23         6.4485   33.0312   18.9361 H           1 PRO       0.0232
     89 H24         6.4211   34.8009   18.8113 H           1 PRO       0.0232
     90 H25        10.0322   32.6951   17.5963 H           1 PRO       0.0232
     91 H26         8.7023   31.7611   18.3161 H           1 PRO       0.0232
     92 H27         9.6467   32.8744   19.3136 H           1 PRO       0.0232
     93 H28         4.8231   34.8491   15.0131 H           1 PRO       0.1884
     94 H29         4.8446   35.4425   12.7218 H           1 PRO       0.0823
     95 H30         6.0063   33.6457   11.6703 H           1 PRO       0.0606
     96 H31         4.3998   33.6481   10.9820 H           1 PRO       0.0606
     97 H32         5.6082   31.6786   12.1504 H           1 PRO       0.2097
     98 H33         2.5322   33.2575   11.8141 H           1 PRO       0.1859
     99 H34         0.4060   34.8524   13.1101 H           1 PRO       0.0632
    100 H35        -0.6077   34.7146   10.7407 H           1 PRO       0.0450
    101 H36         0.9431   34.1435   10.1701 H           1 PRO       0.0450
    102 H37        -1.0271   37.0232   10.8621 H           1 PRO       0.0557
    103 H38         2.9991   35.7517   10.7571 H           1 PRO       0.0557
    104 H39        -0.2974   39.3181   10.7056 H           1 PRO       0.0599
    105 H40         3.7137   38.0544   10.6145 H           1 PRO       0.0599
    106 H41         2.0729   39.8417   10.5818 H           1 PRO       0.0559
    107 H42         0.3900   32.0234   11.9684 H           1 PRO       0.0839
    108 H43        -1.0724   32.9908   12.1972 H           1 PRO       0.0839
    109 H44         0.1096   33.1940   14.5803 H           1 PRO       0.2036
    110 H45         0.6666   31.7097   14.1108 H           1 PRO       0.2036
    111 H46        -1.7419   31.1385   13.6378 H           1 PRO       0.1099
    112 H47        -2.0095   30.6975   16.2571 H           1 PRO       0.0354
    113 H48        -0.3675   31.3344   16.3410 H           1 PRO       0.0354
    114 H49         0.3014   29.5401   14.6330 H           1 PRO       0.0380
    115 H50        -1.3507   28.8892   14.7535 H           1 PRO       0.0380
    116 H51         1.4355   26.6579   16.7164 H           1 PRO       0.0340
    117 H52         1.8726   27.9227   15.5549 H           1 PRO       0.0340
    118 H53         0.5571   26.7901   15.1828 H           1 PRO       0.0340
    119 H54        -1.6355   34.3011   13.8795 H           1 PRO       0.1884
    120 H55        -4.0206   34.9013   13.4110 H           1 PRO       0.0797
    121 H56        -5.3324   35.4213   15.5502 H           1 PRO       0.0277
    122 H57        -4.1679   34.4035   16.4312 H           1 PRO       0.0277
    123 H58        -5.1955   33.7122   15.1572 H           1 PRO       0.0277
    124 H59        -2.4054   35.8721   16.4472 H           1 PRO       0.1877
    125 H60        -2.7561   38.6712   15.8799 H           1 PRO       0.0750
    126 H61        -1.9624   38.9352   18.1438 H           1 PRO       0.0484
    127 H62        -1.2321   37.3228   18.1571 H           1 PRO       0.0484
    128 H63        -4.7917   38.4251   17.3324 H           1 PRO       0.2386
    129 H64        -2.7329   35.8750   19.7756 H           1 PRO       0.0324
    130 H65        -6.4671   37.1234   18.6468 H           1 PRO       0.1149
@<TRIPOS>BOND
     1     1     2   1
     2     1     7   1
     3     2     3   1
     4     2     5   1
     5     3     4   2
     6     3     8  am
     7     5     6   1
     8     6     7   1
     9     8     9   1
    10     9    10   1
    11     9    12   1
    12    10    11   2
    13    10    18  am
    14    12    13   1
    15    13    14   1
    16    13    15   2
    17    14    16   1
    18    15    17   1
    19    16    17   2
    20    18    19   1
    21    19    20   1
    22    19    22   1
    23    20    21   2
    24    20    26  am
    25    22    23   1
    26    23    24   1
    27    23    25   1
    28    26    27   1
    29    27    28   1
    30    27    30   1
    31    28    29   2
    32    28    32  am
    33    30    31   1
    34    32    33   1
    35    33    34   1
    36    33    41   1
    37    34    35   1
    38    35    36  ar
    39    35    37  ar
    40    36    38  ar
    41    37    39  ar
    42    38    40  ar
    43    39    40  ar
    44    41    42   1
    45    42    43   1
    46    43    44   1
    47    43    48   1
    48    44    45   1
    49    45    46   1
    50    46    47   1
    51    48    49   2
    52    48    50  am
    53    50    51   1
    54    51    52   1
    55    51    54   1
    56    52    53   2
    57    52    55  am
    58    55    56   1
    59    56    57   1
    60    56    59   1
    61    57    58  ar
    62    57    65  ar
    63    59    60   1
    64    60    61   1
    65    60    62   2
    66    61    63   1
    67    62    64   1
    68    63    64   2
    69     1    66   1
    70     1    67   1
    71     2    68   1
    72     5    69   1
    73     5    70   1
    74     6    71   1
    75     6    72   1
    76     7    73   1
    77     7    74   1
    78     8    75   1
    79     9    76   1
    80    12    77   1
    81    12    78   1
    82    14    79   1
    83    15    80   1
    84    16    81   1
    85    18    82   1
    86    19    83   1
    87    22    84   1
    88    22    85   1
    89    23    86   1
    90    24    87   1
    91    24    88   1
    92    24    89   1
    93    25    90   1
    94    25    91   1
    95    25    92   1
    96    26    93   1
    97    27    94   1
    98    30    95   1
    99    30    96   1
   100    31    97   1
   101    32    98   1
   102    33    99   1
   103    34   100   1
   104    34   101   1
   105    36   102   1
   106    37   103   1
   107    38   104   1
   108    39   105   1
   109    40   106   1
   110    41   107   1
   111    41   108   1
   112    42   109   1
   113    42   110   1
   114    43   111   1
   115    44   112   1
   116    44   113   1
   117    45   114   1
   118    45   115   1
   119    47   116   1
   120    47   117   1
   121    47   118   1
   122    50   119   1
   123    51   120   1
   124    54   121   1
   125    54   122   1
   126    54   123   1
   127    55   124   1
   128    56   125   1
   129    59   126   1
   130    59   127   1
   131    61   128   1
   132    62   129   1
   133    63   130   1
@<TRIPOS>SUBSTRUCTURE
     1  PRO      2

