@<TRIPOS>MOLECULE
3uri_ligand_005
   130   133
SMALL
GAST_HUCK
****
This file was generated by PARSER (from files_GN.cpp)

@<TRIPOS>ATOM
      1 N           2.2644   29.6632   19.8811 N.4         1 PRO       0.2461
      2 CA          3.1675   28.8019   19.0970 C.3         1 PRO       0.0670
      3 C           3.1338   29.1224   17.6762 C.2         1 PRO       0.2269
      4 O           3.2225   28.2380   16.8284 O.2         1 PRO      -0.3907
      5 CB          2.7323   27.3839   19.5296 C.3         1 PRO       0.0127
      6 CG          2.3961   27.5405   21.0246 C.3         1 PRO      -0.0053
      7 CD          2.1002   29.0450   21.2067 C.3         1 PRO      -0.0313
      8 N           3.0598   30.4031   17.3345 N.am        1 PRO      -0.2592
      9 CA          3.0759   30.9728   16.0119 C.3         1 PRO       0.1422
     10 C           4.2937   31.7535   15.8399 C.2         1 PRO       0.2060
     11 O           4.7701   31.7695   14.6893 O.2         1 PRO      -0.3942
     12 CB          1.8117   31.8530   15.7863 C.3         1 PRO       0.0427
     13 CG          0.5915   31.0434   15.5841 C.2         1 PRO       0.0561
     14 ND1         0.3958   30.1582   14.5902 N.pl3       1 PRO      -0.2623
     15 CD2        -0.5527   30.9975   16.3703 C.2         1 PRO      -0.0276
     16 CE1        -0.8102   29.6000   14.7474 C.2         1 PRO       0.0875
     17 NE2        -1.4038   30.1044   15.8420 N.2         1 PRO      -0.3437
     18 N           4.7457   32.5739   16.7622 N.am        1 PRO      -0.2636
     19 CA          5.8892   33.4650   16.7416 C.3         1 PRO       0.1312
     20 C           6.0771   34.2994   15.5496 C.2         1 PRO       0.2040
     21 O           7.0864   34.9856   15.4585 O.2         1 PRO      -0.3944
     22 CB          7.1876   32.8017   17.3236 C.3         1 PRO      -0.0101
     23 CG          8.0838   31.7998   16.5124 C.3         1 PRO      -0.0425
     24 CD1         7.8253   30.3049   16.8603 C.3         1 PRO      -0.0625
     25 CD2         8.1403   32.0521   14.9807 C.3         1 PRO      -0.0625
     26 N           5.0946   34.4629   14.6734 N.am        1 PRO      -0.2616
     27 CA          5.0989   35.1841   13.4260 C.3         1 PRO       0.1538
     28 C           4.0535   36.2028   13.3920 C.2         1 PRO       0.2045
     29 O           3.2925   36.3072   14.3484 O.2         1 PRO      -0.3944
     30 CB          4.9465   34.1253   12.3018 C.3         1 PRO       0.0843
     31 OG          4.4385   32.8986   12.8171 O.3         1 PRO      -0.3903
     32 N           3.9313   37.0169   12.3461 N.am        1 PRO      -0.2748
     33 C1          3.0370   38.1448   12.2017 C.3         1 PRO       0.0911
     34 C2          1.5627   37.7633   12.5558 C.3         1 PRO       0.0089
     35 C3          0.5166   38.5428   11.8310 C.ar        1 PRO      -0.0406
     36 C4          0.1606   39.8442   12.2461 C.ar        1 PRO      -0.0603
     37 C5         -0.1941   37.9582   10.7523 C.ar        1 PRO      -0.0603
     38 C6         -0.8938   40.5411   11.6167 C.ar        1 PRO      -0.0686
     39 C7         -1.2460   38.6536   10.1242 C.ar        1 PRO      -0.0686
     40 C8         -1.6013   39.9392   10.5615 C.ar        1 PRO      -0.0687
     41 C9          3.6066   39.3931   12.9609 C.3         1 PRO      -0.0062
     42 N2          3.5906   40.6218   12.1264 N.4         1 PRO       0.2479
     43 C10         4.3687   41.8025   12.6067 C.3         1 PRO       0.0676
     44 C11         4.8184   42.7539   11.4359 C.3         1 PRO       0.0169
     45 C12         3.8914   42.8870   10.1906 C.3         1 PRO       0.0007
     46 SD          2.4812   44.0065   10.4278 S.3         1 PRO      -0.1638
     47 C13         1.1212   42.9234    9.9149 C.3         1 PRO      -0.0181
     48 C           3.6612   42.4979   13.6799 C.2         1 PRO       0.2268
     49 O           4.1216   42.4451   14.8158 O.2         1 PRO      -0.3907
     50 N           2.5875   43.2352   13.4390 N.am        1 PRO      -0.2613
     51 CA          1.7741   43.9788   14.3611 C.3         1 PRO       0.1283
     52 C           2.5666   44.7652   15.3097 C.2         1 PRO       0.2032
     53 O           2.9469   44.2412   16.3486 O.2         1 PRO      -0.3944
     54 CB          0.7068   43.0539   15.0061 C.3         1 PRO      -0.0244
     55 N           2.8963   46.0221   15.0152 N.am        1 PRO      -0.2677
     56 CA          3.6568   46.9382   15.8233 C.3         1 PRO       0.1056
     57 C           2.7104   47.9122   16.4074 C.2         1 PRO       0.0621
     58 O           2.2081   47.7280   17.6484 O.co2       1 PRO      -0.5664
     59 CB          4.7500   47.6237   14.9498 C.3         1 PRO       0.0372
     60 CG          5.6471   48.5833   15.6351 C.2         1 PRO       0.0555
     61 ND1         6.9082   48.8275   15.2246 N.pl3       1 PRO      -0.2623
     62 CD2         5.4637   49.3653   16.7674 C.2         1 PRO      -0.0276
     63 CE1         7.4650   49.7091   16.0597 C.2         1 PRO       0.0875
     64 NE2         6.5918   50.0531   17.0168 N.2         1 PRO      -0.3437
     65 OXT         2.2789   48.9792   15.6962 O.co2       1 PRO      -0.5664
     66 H1          1.3520   29.6991   19.4214 H           1 PRO       0.2035
     67 H2          2.6470   30.6101   19.9585 H           1 PRO       0.2035
     68 H3          4.1945   28.9715   19.4445 H           1 PRO       0.1099
     69 H4          3.5257   26.6486   19.3661 H           1 PRO       0.0347
     70 H5          1.8349   27.0731   18.9855 H           1 PRO       0.0347
     71 H6          3.2518   27.2447   21.6401 H           1 PRO       0.0320
     72 H7          1.5343   26.9268   21.3006 H           1 PRO       0.0320
     73 H8          1.0822   29.2110   21.5670 H           1 PRO       0.0814
     74 H9          2.8055   29.4963   21.9114 H           1 PRO       0.0814
     75 H10         2.9720   31.0372   18.0666 H           1 PRO       0.1886
     76 H11         3.0631   30.1789   15.2562 H           1 PRO       0.0824
     77 H12         1.9488   32.4698   14.8929 H           1 PRO       0.0491
     78 H13         1.6652   32.5334   16.6309 H           1 PRO       0.0491
     79 H14         1.0422   29.9393   13.9018 H           1 PRO       0.2386
     80 H15        -0.7199   31.5374   17.2211 H           1 PRO       0.0324
     81 H16        -1.2127   28.8886   14.1351 H           1 PRO       0.1149
     82 H17         4.2508   32.5764   17.6080 H           1 PRO       0.1883
     83 H18         5.6194   34.2092   17.4994 H           1 PRO       0.0800
     84 H19         6.9053   32.3055   18.2579 H           1 PRO       0.0315
     85 H20         7.8462   33.6192   17.6322 H           1 PRO       0.0315
     86 H21         9.1069   31.9802   16.8613 H           1 PRO       0.0298
     87 H22         8.5045   29.6615   16.2984 H           1 PRO       0.0232
     88 H23         6.8073   30.0074   16.6330 H           1 PRO       0.0232
     89 H24         8.0026   30.1285   17.9235 H           1 PRO       0.0232
     90 H25         8.3966   33.0931   14.7760 H           1 PRO       0.0232
     91 H26         7.1930   31.8281   14.5000 H           1 PRO       0.0232
     92 H27         8.9060   31.4229   14.5214 H           1 PRO       0.0232
     93 H28         4.2722   33.9911   14.8653 H           1 PRO       0.1884
     94 H29         6.0534   35.6894   13.2714 H           1 PRO       0.0823
     95 H30         5.9216   33.9295   11.8439 H           1 PRO       0.0606
     96 H31         4.2767   34.4802   11.5131 H           1 PRO       0.0606
     97 H32         4.4053   32.3048   12.0429 H           1 PRO       0.2097
     98 H33         4.5247   36.8544   11.5888 H           1 PRO       0.1859
     99 H34         3.0588   38.3578   11.1286 H           1 PRO       0.0632
    100 H35         1.3981   37.8697   13.6312 H           1 PRO       0.0450
    101 H36         1.4237   36.6987   12.3413 H           1 PRO       0.0450
    102 H37         0.6485   40.2946   13.0243 H           1 PRO       0.0557
    103 H38         0.0355   37.0178   10.4311 H           1 PRO       0.0557
    104 H39        -1.1533   41.4778   11.9326 H           1 PRO       0.0599
    105 H40        -1.7683   38.2097    9.3621 H           1 PRO       0.0599
    106 H41        -2.3800   40.4358   10.1168 H           1 PRO       0.0559
    107 H42         4.6438   39.1950   13.2445 H           1 PRO       0.0839
    108 H43         3.0507   39.5689   13.8830 H           1 PRO       0.0839
    109 H44         2.6188   40.9045   11.9776 H           1 PRO       0.2036
    110 H45         3.9886   40.3525   11.2255 H           1 PRO       0.2036
    111 H46         5.3033   41.4197   13.0348 H           1 PRO       0.1099
    112 H47         5.7741   42.3732   11.0586 H           1 PRO       0.0354
    113 H48         5.0348   43.7578   11.8183 H           1 PRO       0.0354
    114 H49         3.5697   41.8980    9.8582 H           1 PRO       0.0380
    115 H50         4.4761   43.3164    9.3762 H           1 PRO       0.0380
    116 H51         0.1755   43.4653   10.0139 H           1 PRO       0.0340
    117 H52         1.0883   42.0279   10.5423 H           1 PRO       0.0340
    118 H53         1.2526   42.6334    8.8707 H           1 PRO       0.0340
    119 H54         2.3130   43.2881   12.5152 H           1 PRO       0.1884
    120 H55         1.2047   44.6830   13.7452 H           1 PRO       0.0797
    121 H56         0.1164   43.6080   15.7375 H           1 PRO       0.0277
    122 H57         1.1744   42.2007   15.5007 H           1 PRO       0.0277
    123 H58         0.0280   42.6733   14.2405 H           1 PRO       0.0277
    124 H59         2.5899   46.3611   14.1578 H           1 PRO       0.1877
    125 H60         4.1650   46.4117   16.6375 H           1 PRO       0.0750
    126 H61         4.2734   48.1420   14.1136 H           1 PRO       0.0484
    127 H62         5.3885   46.8438   14.5268 H           1 PRO       0.0484
    128 H63         7.3385   48.4226   14.4608 H           1 PRO       0.2386
    129 H64         4.6212   49.4176   17.3467 H           1 PRO       0.0324
    130 H65         8.4221   50.0649   15.9829 H           1 PRO       0.1149
@<TRIPOS>BOND
     1     1     2   1
     2     1     7   1
     3     2     3   1
     4     2     5   1
     5     3     4   2
     6     3     8  am
     7     5     6   1
     8     6     7   1
     9     8     9   1
    10     9    10   1
    11     9    12   1
    12    10    11   2
    13    10    18  am
    14    12    13   1
    15    13    14   1
    16    13    15   2
    17    14    16   1
    18    15    17   1
    19    16    17   2
    20    18    19   1
    21    19    20   1
    22    19    22   1
    23    20    21   2
    24    20    26  am
    25    22    23   1
    26    23    24   1
    27    23    25   1
    28    26    27   1
    29    27    28   1
    30    27    30   1
    31    28    29   2
    32    28    32  am
    33    30    31   1
    34    32    33   1
    35    33    34   1
    36    33    41   1
    37    34    35   1
    38    35    36  ar
    39    35    37  ar
    40    36    38  ar
    41    37    39  ar
    42    38    40  ar
    43    39    40  ar
    44    41    42   1
    45    42    43   1
    46    43    44   1
    47    43    48   1
    48    44    45   1
    49    45    46   1
    50    46    47   1
    51    48    49   2
    52    48    50  am
    53    50    51   1
    54    51    52   1
    55    51    54   1
    56    52    53   2
    57    52    55  am
    58    55    56   1
    59    56    57   1
    60    56    59   1
    61    57    58  ar
    62    57    65  ar
    63    59    60   1
    64    60    61   1
    65    60    62   2
    66    61    63   1
    67    62    64   1
    68    63    64   2
    69     1    66   1
    70     1    67   1
    71     2    68   1
    72     5    69   1
    73     5    70   1
    74     6    71   1
    75     6    72   1
    76     7    73   1
    77     7    74   1
    78     8    75   1
    79     9    76   1
    80    12    77   1
    81    12    78   1
    82    14    79   1
    83    15    80   1
    84    16    81   1
    85    18    82   1
    86    19    83   1
    87    22    84   1
    88    22    85   1
    89    23    86   1
    90    24    87   1
    91    24    88   1
    92    24    89   1
    93    25    90   1
    94    25    91   1
    95    25    92   1
    96    26    93   1
    97    27    94   1
    98    30    95   1
    99    30    96   1
   100    31    97   1
   101    32    98   1
   102    33    99   1
   103    34   100   1
   104    34   101   1
   105    36   102   1
   106    37   103   1
   107    38   104   1
   108    39   105   1
   109    40   106   1
   110    41   107   1
   111    41   108   1
   112    42   109   1
   113    42   110   1
   114    43   111   1
   115    44   112   1
   116    44   113   1
   117    45   114   1
   118    45   115   1
   119    47   116   1
   120    47   117   1
   121    47   118   1
   122    50   119   1
   123    51   120   1
   124    54   121   1
   125    54   122   1
   126    54   123   1
   127    55   124   1
   128    56   125   1
   129    59   126   1
   130    59   127   1
   131    61   128   1
   132    62   129   1
   133    63   130   1
@<TRIPOS>SUBSTRUCTURE
     1  PRO      2

