@<TRIPOS>MOLECULE
3uri_ligand_030
   130   133
SMALL
GAST_HUCK
****
This file was generated by PARSER (from files_GN.cpp)

@<TRIPOS>ATOM
      1 N           0.7734   31.2695   16.5126 N.4         1 PRO       0.2461
      2 CA          1.7936   30.9587   15.4940 C.3         1 PRO       0.0670
      3 C           3.1263   30.8000   16.0643 C.2         1 PRO       0.2269
      4 O           4.0514   31.4917   15.6509 O.2         1 PRO      -0.3907
      5 CB          1.6101   32.1376   14.5068 C.3         1 PRO       0.0127
      6 CG          0.0926   32.3936   14.4944 C.3         1 PRO      -0.0053
      7 CD         -0.4126   31.7964   15.8234 C.3         1 PRO      -0.0313
      8 N           3.3409   29.8690   16.9894 N.am        1 PRO      -0.2592
      9 CA          4.5627   29.5124   17.6697 C.3         1 PRO       0.1422
     10 C           5.6264   30.5074   17.5468 C.2         1 PRO       0.2060
     11 O           6.7387   30.1985   17.1292 O.2         1 PRO      -0.3942
     12 CB          4.9341   28.0385   17.3079 C.3         1 PRO       0.0427
     13 CG          5.9367   27.4387   18.2186 C.2         1 PRO       0.0561
     14 ND1         5.6605   26.6576   19.2730 N.pl3       1 PRO      -0.2623
     15 CD2         7.3240   27.5470   18.1715 C.2         1 PRO      -0.0276
     16 CE1         6.8139   26.3031   19.8558 C.2         1 PRO       0.0875
     17 NE2         7.8446   26.8487   19.1904 N.2         1 PRO      -0.3437
     18 N           5.3448   31.7674   17.8550 N.am        1 PRO      -0.2636
     19 CA          6.2340   32.8972   17.8822 C.3         1 PRO       0.1312
     20 C           6.5358   33.3481   16.5198 C.2         1 PRO       0.2040
     21 O           7.6929   33.3358   16.1093 O.2         1 PRO      -0.3944
     22 CB          7.4855   32.6591   18.8029 C.3         1 PRO      -0.0101
     23 CG          7.2260   32.0533   20.2224 C.3         1 PRO      -0.0425
     24 CD1         8.5536   31.5890   20.8893 C.3         1 PRO      -0.0625
     25 CD2         6.4690   33.0255   21.1736 C.3         1 PRO      -0.0625
     26 N           5.5492   33.7433   15.7213 N.am        1 PRO      -0.2616
     27 CA          5.6664   34.2241   14.3611 C.3         1 PRO       0.1538
     28 C           4.6745   35.2513   14.0476 C.2         1 PRO       0.2045
     29 O           3.5472   35.1878   14.5299 O.2         1 PRO      -0.3944
     30 CB          5.5700   33.0403   13.3611 C.3         1 PRO       0.0843
     31 OG          5.3221   33.4719   12.0237 O.3         1 PRO      -0.3903
     32 N           5.0044   36.2541   13.2448 N.am        1 PRO      -0.2748
     33 C1          4.2461   37.4554   12.9809 C.3         1 PRO       0.0911
     34 C2          5.2656   38.4518   12.3473 C.3         1 PRO       0.0089
     35 C3          4.8771   39.8834   12.2476 C.ar        1 PRO      -0.0406
     36 C4          4.7782   40.5301   10.9919 C.ar        1 PRO      -0.0603
     37 C5          4.7707   40.6734   13.4218 C.ar        1 PRO      -0.0603
     38 C6          4.6232   41.9273   10.9085 C.ar        1 PRO      -0.0686
     39 C7          4.6286   42.0717   13.3379 C.ar        1 PRO      -0.0686
     40 C8          4.5681   42.7001   12.0817 C.ar        1 PRO      -0.0687
     41 C9          2.9947   37.1675   12.0852 C.3         1 PRO      -0.0062
     42 N2          1.9719   38.2539   12.1340 N.4         1 PRO       0.2479
     43 C10         0.5435   37.8071   12.0690 C.3         1 PRO       0.0676
     44 C11         0.1212   37.0803   13.3920 C.3         1 PRO       0.0169
     45 C12        -1.2850   36.4054   13.3906 C.3         1 PRO       0.0007
     46 SD         -2.6270   37.4415   14.0325 S.3         1 PRO      -0.1638
     47 C13        -2.6367   36.8883   15.7554 C.3         1 PRO      -0.0181
     48 C          -0.3525   38.9228   11.7382 C.2         1 PRO       0.2268
     49 O          -1.1706   38.7472   10.8398 O.2         1 PRO      -0.3907
     50 N          -0.3399   40.0700   12.4141 N.am        1 PRO      -0.2613
     51 CA         -1.2554   41.1832   12.2514 C.3         1 PRO       0.1283
     52 C          -0.6758   42.4136   12.7714 C.2         1 PRO       0.2032
     53 O          -0.3247   43.2814   11.9726 O.2         1 PRO      -0.3944
     54 CB         -2.6132   40.8619   12.9301 C.3         1 PRO      -0.0244
     55 N          -0.4698   42.5709   14.0748 N.am        1 PRO      -0.2677
     56 CA          0.1620   43.6813   14.7337 C.3         1 PRO       0.1056
     57 C           1.6152   43.4702   14.5678 C.2         1 PRO       0.0621
     58 O           2.4781   43.3375   15.6050 O.co2       1 PRO      -0.5664
     59 CB         -0.3029   43.8037   16.2178 C.3         1 PRO       0.0372
     60 CG         -1.5903   44.5111   16.3732 C.2         1 PRO       0.0555
     61 ND1        -2.7373   43.9865   16.8222 N.pl3       1 PRO      -0.2623
     62 CD2        -1.8372   45.8628   16.1560 C.2         1 PRO      -0.0276
     63 CE1        -3.6557   44.9601   16.8772 C.2         1 PRO       0.0875
     64 NE2        -3.1156   46.1184   16.4731 N.2         1 PRO      -0.3437
     65 OXT         2.1129   43.4440   13.3120 O.co2       1 PRO      -0.5664
     66 H1          1.1412   31.9858   17.1469 H           1 PRO       0.2035
     67 H2          0.5344   30.4289   17.0440 H           1 PRO       0.2035
     68 H3          1.5147   30.0200   15.0004 H           1 PRO       0.1099
     69 H4          1.9871   31.9057   13.5069 H           1 PRO       0.0347
     70 H5          2.1162   33.0326   14.8850 H           1 PRO       0.0347
     71 H6         -0.3806   31.8821   13.6509 H           1 PRO       0.0320
     72 H7         -0.1333   33.4617   14.4320 H           1 PRO       0.0320
     73 H8         -0.8977   32.5478   16.4514 H           1 PRO       0.0814
     74 H9         -1.1111   30.9752   15.6407 H           1 PRO       0.0814
     75 H10         2.5657   29.3365   17.2374 H           1 PRO       0.1886
     76 H11         4.2906   29.5126   18.7301 H           1 PRO       0.0824
     77 H12         5.2937   27.9897   16.2768 H           1 PRO       0.0491
     78 H13         4.0363   27.4136   17.3628 H           1 PRO       0.0491
     79 H14         4.7749   26.3951   19.5669 H           1 PRO       0.2386
     80 H15         7.8668   28.0697   17.4837 H           1 PRO       0.0324
     81 H16         6.8973   25.7165   20.6865 H           1 PRO       0.1149
     82 H17         4.4385   31.9387   18.1604 H           1 PRO       0.1883
     83 H18         5.6719   33.7138   18.3465 H           1 PRO       0.0800
     84 H19         8.0123   33.6120   18.9240 H           1 PRO       0.0315
     85 H20         8.1702   31.9826   18.2804 H           1 PRO       0.0315
     86 H21         6.6025   31.1611   20.1021 H           1 PRO       0.0298
     87 H22         8.3485   31.1184   21.8525 H           1 PRO       0.0232
     88 H23         9.2203   32.4369   21.0526 H           1 PRO       0.0232
     89 H24         9.0720   30.8590   20.2631 H           1 PRO       0.0232
     90 H25         5.4970   33.2993   20.7642 H           1 PRO       0.0232
     91 H26         7.0489   33.9346   21.3362 H           1 PRO       0.0232
     92 H27         6.2974   32.5470   22.1384 H           1 PRO       0.0232
     93 H28         4.6503   33.7101   16.0884 H           1 PRO       0.1884
     94 H29         6.6573   34.6770   14.2385 H           1 PRO       0.0823
     95 H30         4.7611   32.3667   13.6501 H           1 PRO       0.0606
     96 H31         6.5077   32.4771   13.3616 H           1 PRO       0.0606
     97 H32         5.0527   32.6560   11.5481 H           1 PRO       0.2097
     98 H33         5.9080   36.2250   12.8786 H           1 PRO       0.1859
     99 H34         3.9248   37.8637   13.9456 H           1 PRO       0.0632
    100 H35         5.5397   38.0690   11.3585 H           1 PRO       0.0450
    101 H36         6.1856   38.4342   12.9438 H           1 PRO       0.0450
    102 H37         4.8572   39.9940   10.1250 H           1 PRO       0.0557
    103 H38         4.8426   40.2387   14.3440 H           1 PRO       0.0557
    104 H39         4.5684   42.3874    9.9940 H           1 PRO       0.0599
    105 H40         4.5758   42.6355   14.1907 H           1 PRO       0.0599
    106 H41         4.4744   43.7191   12.0214 H           1 PRO       0.0559
    107 H42         2.5455   36.2250   12.4094 H           1 PRO       0.0839
    108 H43         3.2945   37.0243   11.0422 H           1 PRO       0.0839
    109 H44         2.1575   38.8852   11.3485 H           1 PRO       0.2036
    110 H45         2.0933   38.7811   13.0024 H           1 PRO       0.2036
    111 H46         0.4672   37.0677   11.2595 H           1 PRO       0.1099
    112 H47         0.2101   37.7743   14.2304 H           1 PRO       0.0354
    113 H48         0.8444   36.2832   13.5805 H           1 PRO       0.0354
    114 H49        -1.2489   35.4875   13.9838 H           1 PRO       0.0380
    115 H50        -1.5534   36.1129   12.3726 H           1 PRO       0.0380
    116 H51        -3.4253   37.4198   16.2900 H           1 PRO       0.0340
    117 H52        -1.6828   37.1022   16.2372 H           1 PRO       0.0340
    118 H53        -2.8395   35.8173   15.8047 H           1 PRO       0.0340
    119 H54         0.3290   40.1623   13.1135 H           1 PRO       0.1884
    120 H55        -1.4887   41.3310   11.1900 H           1 PRO       0.0797
    121 H56        -3.2708   41.7345   12.9039 H           1 PRO       0.0277
    122 H57        -2.4706   40.5602   13.9700 H           1 PRO       0.0277
    123 H58        -3.1175   40.0522   12.4011 H           1 PRO       0.0277
    124 H59        -0.7056   41.8158   14.6397 H           1 PRO       0.1877
    125 H60        -0.0605   44.6280   14.2316 H           1 PRO       0.0750
    126 H61         0.4366   44.3609   16.7993 H           1 PRO       0.0484
    127 H62        -0.3835   42.8067   16.6602 H           1 PRO       0.0484
    128 H63        -2.8734   43.0594   17.0782 H           1 PRO       0.2386
    129 H64        -1.1578   46.5555   15.8371 H           1 PRO       0.0324
    130 H65        -4.6148   44.8410   17.1993 H           1 PRO       0.1149
@<TRIPOS>BOND
     1     1     2   1
     2     1     7   1
     3     2     3   1
     4     2     5   1
     5     3     4   2
     6     3     8  am
     7     5     6   1
     8     6     7   1
     9     8     9   1
    10     9    10   1
    11     9    12   1
    12    10    11   2
    13    10    18  am
    14    12    13   1
    15    13    14   1
    16    13    15   2
    17    14    16   1
    18    15    17   1
    19    16    17   2
    20    18    19   1
    21    19    20   1
    22    19    22   1
    23    20    21   2
    24    20    26  am
    25    22    23   1
    26    23    24   1
    27    23    25   1
    28    26    27   1
    29    27    28   1
    30    27    30   1
    31    28    29   2
    32    28    32  am
    33    30    31   1
    34    32    33   1
    35    33    34   1
    36    33    41   1
    37    34    35   1
    38    35    36  ar
    39    35    37  ar
    40    36    38  ar
    41    37    39  ar
    42    38    40  ar
    43    39    40  ar
    44    41    42   1
    45    42    43   1
    46    43    44   1
    47    43    48   1
    48    44    45   1
    49    45    46   1
    50    46    47   1
    51    48    49   2
    52    48    50  am
    53    50    51   1
    54    51    52   1
    55    51    54   1
    56    52    53   2
    57    52    55  am
    58    55    56   1
    59    56    57   1
    60    56    59   1
    61    57    58  ar
    62    57    65  ar
    63    59    60   1
    64    60    61   1
    65    60    62   2
    66    61    63   1
    67    62    64   1
    68    63    64   2
    69     1    66   1
    70     1    67   1
    71     2    68   1
    72     5    69   1
    73     5    70   1
    74     6    71   1
    75     6    72   1
    76     7    73   1
    77     7    74   1
    78     8    75   1
    79     9    76   1
    80    12    77   1
    81    12    78   1
    82    14    79   1
    83    15    80   1
    84    16    81   1
    85    18    82   1
    86    19    83   1
    87    22    84   1
    88    22    85   1
    89    23    86   1
    90    24    87   1
    91    24    88   1
    92    24    89   1
    93    25    90   1
    94    25    91   1
    95    25    92   1
    96    26    93   1
    97    27    94   1
    98    30    95   1
    99    30    96   1
   100    31    97   1
   101    32    98   1
   102    33    99   1
   103    34   100   1
   104    34   101   1
   105    36   102   1
   106    37   103   1
   107    38   104   1
   108    39   105   1
   109    40   106   1
   110    41   107   1
   111    41   108   1
   112    42   109   1
   113    42   110   1
   114    43   111   1
   115    44   112   1
   116    44   113   1
   117    45   114   1
   118    45   115   1
   119    47   116   1
   120    47   117   1
   121    47   118   1
   122    50   119   1
   123    51   120   1
   124    54   121   1
   125    54   122   1
   126    54   123   1
   127    55   124   1
   128    56   125   1
   129    59   126   1
   130    59   127   1
   131    61   128   1
   132    62   129   1
   133    63   130   1
@<TRIPOS>SUBSTRUCTURE
     1  PRO      2

