@<TRIPOS>MOLECULE
3uri_ligand_062
   130   133
SMALL
GAST_HUCK
****
This file was generated by PARSER (from files_GN.cpp)

@<TRIPOS>ATOM
      1 N          -1.4226   22.0509   24.3295 N.4         1 PRO       0.2461
      2 CA         -0.6103   22.7878   23.3426 C.3         1 PRO       0.0670
      3 C           0.6479   23.3106   23.8544 C.2         1 PRO       0.2269
      4 O           0.9790   23.1056   25.0171 O.2         1 PRO      -0.3907
      5 CB         -1.5782   23.8862   22.8513 C.3         1 PRO       0.0127
      6 CG         -2.9762   23.2411   22.9319 C.3         1 PRO      -0.0053
      7 CD         -2.7955   21.9867   23.8084 C.3         1 PRO      -0.0313
      8 N           1.4383   24.0074   23.0386 N.am        1 PRO      -0.2592
      9 CA          2.7181   24.5918   23.3608 C.3         1 PRO       0.1422
     10 C           3.1440   25.4069   22.2215 C.2         1 PRO       0.2060
     11 O           3.2822   26.6133   22.3772 O.2         1 PRO      -0.3942
     12 CB          3.8439   23.5797   23.8072 C.3         1 PRO       0.0427
     13 CG          3.5313   22.1378   23.6734 C.2         1 PRO       0.0561
     14 ND1         3.3860   21.2603   24.6772 N.pl3       1 PRO      -0.2623
     15 CD2         3.3475   21.4152   22.4945 C.2         1 PRO      -0.0276
     16 CE1         3.0884   20.0631   24.1520 C.2         1 PRO       0.0875
     17 NE2         3.0670   20.1430   22.8110 N.2         1 PRO      -0.3437
     18 N           3.3806   24.8402   21.0414 N.am        1 PRO      -0.2636
     19 CA          3.8318   25.4766   19.8290 C.3         1 PRO       0.1312
     20 C           5.0573   26.2619   19.9898 C.2         1 PRO       0.2040
     21 O           5.5678   26.4405   21.0946 O.2         1 PRO      -0.3944
     22 CB          2.6894   26.2745   19.1107 C.3         1 PRO      -0.0101
     23 CG          1.2820   25.5881   19.0795 C.3         1 PRO      -0.0425
     24 CD1         0.1633   26.6590   18.9333 C.3         1 PRO      -0.0625
     25 CD2         1.1658   24.5224   17.9490 C.3         1 PRO      -0.0625
     26 N           5.6694   26.7233   18.9029 N.am        1 PRO      -0.2616
     27 CA          6.9199   27.4373   18.8362 C.3         1 PRO       0.1538
     28 C           7.0292   28.5471   19.7849 C.2         1 PRO       0.2045
     29 O           7.9373   28.5084   20.6232 O.2         1 PRO      -0.3944
     30 CB          7.1103   27.9487   17.3778 C.3         1 PRO       0.0843
     31 OG          8.4814   28.2013   17.0541 O.3         1 PRO      -0.3903
     32 N           6.1282   29.5209   19.7832 N.am        1 PRO      -0.2748
     33 C1          6.0700   30.7177   20.5804 C.3         1 PRO       0.0911
     34 C2          6.8251   30.7125   21.9471 C.3         1 PRO       0.0089
     35 C3          6.4466   29.6472   22.9139 C.ar        1 PRO      -0.0406
     36 C4          7.4260   28.8107   23.5002 C.ar        1 PRO      -0.0603
     37 C5          5.0946   29.4877   23.3299 C.ar        1 PRO      -0.0603
     38 C6          7.0774   27.8251   24.4406 C.ar        1 PRO      -0.0686
     39 C7          4.7481   28.5062   24.2718 C.ar        1 PRO      -0.0686
     40 C8          5.7302   27.6738   24.8279 C.ar        1 PRO      -0.0687
     41 C9          6.4559   31.9514   19.7154 C.3         1 PRO      -0.0062
     42 N2          5.6322   32.0527   18.4815 N.4         1 PRO       0.2479
     43 C10         5.5108   33.3950   17.8407 C.3         1 PRO       0.0676
     44 C11         6.8578   33.9934   17.2949 C.3         1 PRO       0.0169
     45 C12         7.0911   34.2369   15.7786 C.3         1 PRO       0.0007
     46 SD          7.3994   32.7923   14.7302 S.3         1 PRO      -0.1638
     47 C13         8.4460   31.8009   15.8217 C.3         1 PRO      -0.0181
     48 C           4.4028   33.3670   16.8811 C.2         1 PRO       0.2268
     49 O           3.3340   33.8953   17.1766 O.2         1 PRO      -0.3907
     50 N           4.5128   32.6811   15.7436 N.am        1 PRO      -0.2613
     51 CA          3.5689   32.5134   14.6653 C.3         1 PRO       0.1283
     52 C           3.2909   33.7641   13.9564 C.2         1 PRO       0.2032
     53 O           3.2058   34.7860   14.6245 O.2         1 PRO      -0.3944
     54 CB          2.2795   31.7698   15.1285 C.3         1 PRO      -0.0244
     55 N           3.0885   33.8007   12.6340 N.am        1 PRO      -0.2677
     56 CA          2.8084   34.9196   11.7618 C.3         1 PRO       0.1056
     57 C           2.5750   36.2388   12.4104 C.2         1 PRO       0.0621
     58 O           1.3428   36.7902   12.5128 O.co2       1 PRO      -0.5664
     59 CB          1.7278   34.5457   10.6995 C.3         1 PRO       0.0372
     60 CG          0.3982   34.1987   11.2401 C.2         1 PRO       0.0555
     61 ND1        -0.7600   34.8218   10.9720 N.pl3       1 PRO      -0.2623
     62 CD2         0.0802   33.1408   12.0893 C.2         1 PRO      -0.0276
     63 CE1        -1.7414   34.1999   11.6372 C.2         1 PRO       0.0875
     64 NE2        -1.2400   33.1602   12.3290 N.2         1 PRO      -0.3437
     65 OXT         3.6016   36.8885   13.0054 O.co2       1 PRO      -0.5664
     66 H1         -1.4305   22.5674   25.2136 H           1 PRO       0.2035
     67 H2         -1.0503   21.1102   24.4814 H           1 PRO       0.2035
     68 H3         -0.3832   22.1016   22.5177 H           1 PRO       0.1099
     69 H4         -1.3362   24.2018   21.8329 H           1 PRO       0.0347
     70 H5         -1.5373   24.7592   23.5115 H           1 PRO       0.0347
     71 H6         -3.3287   22.9677   21.9367 H           1 PRO       0.0320
     72 H7         -3.6910   23.9360   23.3767 H           1 PRO       0.0320
     73 H8         -3.5086   21.9675   24.6323 H           1 PRO       0.0814
     74 H9         -2.9196   21.0809   23.2101 H           1 PRO       0.0814
     75 H10         1.1045   24.1530   22.1366 H           1 PRO       0.1886
     76 H11         2.5404   25.2709   24.2067 H           1 PRO       0.0824
     77 H12         4.0734   23.7702   24.8608 H           1 PRO       0.0491
     78 H13         4.7778   23.7581   23.2579 H           1 PRO       0.0491
     79 H14         3.4487   21.4678   25.6225 H           1 PRO       0.2386
     80 H15         3.3873   21.7945   21.5446 H           1 PRO       0.0324
     81 H16         2.9159   19.2164   24.6904 H           1 PRO       0.1149
     82 H17         3.2336   23.8827   20.9952 H           1 PRO       0.1883
     83 H18         4.1140   24.6470   19.1788 H           1 PRO       0.0800
     84 H19         2.9878   26.4603   18.0719 H           1 PRO       0.0315
     85 H20         2.5966   27.2506   19.5990 H           1 PRO       0.0315
     86 H21         1.1177   25.0846   20.0393 H           1 PRO       0.0298
     87 H22        -0.8208   26.1791   18.9088 H           1 PRO       0.0232
     88 H23         0.2967   27.2361   18.0100 H           1 PRO       0.0232
     89 H24         0.1816   27.3496   19.7849 H           1 PRO       0.0232
     90 H25         1.8616   23.6953   18.1253 H           1 PRO       0.0232
     91 H26         1.3893   24.9776   16.9729 H           1 PRO       0.0232
     92 H27         0.1507   24.1071   17.9239 H           1 PRO       0.0232
     93 H28         5.2506   26.5272   18.0477 H           1 PRO       0.1884
     94 H29         7.7196   26.7133   19.0260 H           1 PRO       0.0823
     95 H30         6.5270   28.8625   17.2142 H           1 PRO       0.0606
     96 H31         6.7525   27.1875   16.6738 H           1 PRO       0.0606
     97 H32         8.6504   29.1347   17.3023 H           1 PRO       0.2097
     98 H33         5.4339   29.4552   19.0953 H           1 PRO       0.1859
     99 H34         5.0091   30.8407   20.8120 H           1 PRO       0.0632
    100 H35         6.6549   31.6728   22.4458 H           1 PRO       0.0450
    101 H36         7.9000   30.6559   21.7449 H           1 PRO       0.0450
    102 H37         8.4105   28.9125   23.2468 H           1 PRO       0.0557
    103 H38         4.3647   30.0900   22.9523 H           1 PRO       0.0557
    104 H39         7.7987   27.2331   24.8564 H           1 PRO       0.0599
    105 H40         3.7695   28.4087   24.5734 H           1 PRO       0.0599
    106 H41         5.4789   26.9624   25.5180 H           1 PRO       0.0559
    107 H42         7.5048   31.8778   19.4404 H           1 PRO       0.0839
    108 H43         6.3302   32.8462   20.3293 H           1 PRO       0.0839
    109 H44         4.6782   31.7935   18.7404 H           1 PRO       0.2036
    110 H45         5.9800   31.3822   17.7931 H           1 PRO       0.2036
    111 H46         5.1917   34.0679   18.6504 H           1 PRO       0.1099
    112 H47         7.6892   33.4015   17.6762 H           1 PRO       0.0354
    113 H48         6.9807   34.9697   17.7708 H           1 PRO       0.0354
    114 H49         7.9468   34.9075   15.6703 H           1 PRO       0.0380
    115 H50         6.2244   34.7612   15.3711 H           1 PRO       0.0380
    116 H51         8.8785   30.9908   15.2326 H           1 PRO       0.0340
    117 H52         7.8463   31.3726   16.6260 H           1 PRO       0.0340
    118 H53         9.2536   32.4053   16.2404 H           1 PRO       0.0340
    119 H54         5.3549   32.2168   15.6150 H           1 PRO       0.1884
    120 H55         4.0650   31.8313   13.9634 H           1 PRO       0.0797
    121 H56         1.6765   31.4842   14.2567 H           1 PRO       0.0277
    122 H57         1.6665   32.4015   15.7846 H           1 PRO       0.0277
    123 H58         2.5555   30.8595   15.6726 H           1 PRO       0.0277
    124 H59         3.1097   32.9518   12.1702 H           1 PRO       0.1877
    125 H60         3.7339   35.0650   11.1948 H           1 PRO       0.0750
    126 H61         2.0774   33.6975   10.1084 H           1 PRO       0.0484
    127 H62         1.6185   35.3809   10.0024 H           1 PRO       0.0484
    128 H63        -0.8675   35.5925   10.3908 H           1 PRO       0.2386
    129 H64         0.7331   32.4487   12.4559 H           1 PRO       0.0324
    130 H65        -2.7274   34.4674   11.6206 H           1 PRO       0.1149
@<TRIPOS>BOND
     1     1     2   1
     2     1     7   1
     3     2     3   1
     4     2     5   1
     5     3     4   2
     6     3     8  am
     7     5     6   1
     8     6     7   1
     9     8     9   1
    10     9    10   1
    11     9    12   1
    12    10    11   2
    13    10    18  am
    14    12    13   1
    15    13    14   1
    16    13    15   2
    17    14    16   1
    18    15    17   1
    19    16    17   2
    20    18    19   1
    21    19    20   1
    22    19    22   1
    23    20    21   2
    24    20    26  am
    25    22    23   1
    26    23    24   1
    27    23    25   1
    28    26    27   1
    29    27    28   1
    30    27    30   1
    31    28    29   2
    32    28    32  am
    33    30    31   1
    34    32    33   1
    35    33    34   1
    36    33    41   1
    37    34    35   1
    38    35    36  ar
    39    35    37  ar
    40    36    38  ar
    41    37    39  ar
    42    38    40  ar
    43    39    40  ar
    44    41    42   1
    45    42    43   1
    46    43    44   1
    47    43    48   1
    48    44    45   1
    49    45    46   1
    50    46    47   1
    51    48    49   2
    52    48    50  am
    53    50    51   1
    54    51    52   1
    55    51    54   1
    56    52    53   2
    57    52    55  am
    58    55    56   1
    59    56    57   1
    60    56    59   1
    61    57    58  ar
    62    57    65  ar
    63    59    60   1
    64    60    61   1
    65    60    62   2
    66    61    63   1
    67    62    64   1
    68    63    64   2
    69     1    66   1
    70     1    67   1
    71     2    68   1
    72     5    69   1
    73     5    70   1
    74     6    71   1
    75     6    72   1
    76     7    73   1
    77     7    74   1
    78     8    75   1
    79     9    76   1
    80    12    77   1
    81    12    78   1
    82    14    79   1
    83    15    80   1
    84    16    81   1
    85    18    82   1
    86    19    83   1
    87    22    84   1
    88    22    85   1
    89    23    86   1
    90    24    87   1
    91    24    88   1
    92    24    89   1
    93    25    90   1
    94    25    91   1
    95    25    92   1
    96    26    93   1
    97    27    94   1
    98    30    95   1
    99    30    96   1
   100    31    97   1
   101    32    98   1
   102    33    99   1
   103    34   100   1
   104    34   101   1
   105    36   102   1
   106    37   103   1
   107    38   104   1
   108    39   105   1
   109    40   106   1
   110    41   107   1
   111    41   108   1
   112    42   109   1
   113    42   110   1
   114    43   111   1
   115    44   112   1
   116    44   113   1
   117    45   114   1
   118    45   115   1
   119    47   116   1
   120    47   117   1
   121    47   118   1
   122    50   119   1
   123    51   120   1
   124    54   121   1
   125    54   122   1
   126    54   123   1
   127    55   124   1
   128    56   125   1
   129    59   126   1
   130    59   127   1
   131    61   128   1
   132    62   129   1
   133    63   130   1
@<TRIPOS>SUBSTRUCTURE
     1  PRO      2

