@<TRIPOS>MOLECULE
3uri_ligand_048
   130   133
SMALL
GAST_HUCK
****
This file was generated by PARSER (from files_GN.cpp)

@<TRIPOS>ATOM
      1 N           8.2312   29.2245   17.8055 N.4         1 PRO       0.2461
      2 CA          7.4614   27.9674   17.7497 C.3         1 PRO       0.0670
      3 C           6.2020   28.1336   17.0312 C.2         1 PRO       0.2269
      4 O           6.0526   27.5575   15.9609 O.2         1 PRO      -0.3907
      5 CB          7.3173   27.5239   19.2239 C.3         1 PRO       0.0127
      6 CG          8.6116   28.0255   19.8828 C.3         1 PRO      -0.0053
      7 CD          9.0127   29.2613   19.0537 C.3         1 PRO      -0.0313
      8 N           5.2485   28.9117   17.5338 N.am        1 PRO      -0.2592
      9 CA          3.9925   29.2662   16.9226 C.3         1 PRO       0.1422
     10 C           3.8709   30.7207   16.8438 C.2         1 PRO       0.2060
     11 O           2.8019   31.2656   17.0957 O.2         1 PRO      -0.3942
     12 CB          2.8281   28.5455   17.6731 C.3         1 PRO       0.0427
     13 CG          2.7442   28.8159   19.1307 C.2         1 PRO       0.0561
     14 ND1         2.7418   30.0131   19.7352 N.pl3       1 PRO      -0.2623
     15 CD2         2.6132   27.8746   20.1491 C.2         1 PRO      -0.0276
     16 CE1         2.6116   29.8266   21.0584 C.2         1 PRO       0.0875
     17 NE2         2.5303   28.5143   21.3268 N.2         1 PRO      -0.3437
     18 N           4.8883   31.4499   16.3945 N.am        1 PRO      -0.2636
     19 CA          4.8887   32.8813   16.2194 C.3         1 PRO       0.1312
     20 C           4.3790   33.2167   14.8877 C.2         1 PRO       0.2040
     21 O           3.5274   32.4873   14.3845 O.2         1 PRO      -0.3944
     22 CB          6.3027   33.4730   16.5301 C.3         1 PRO      -0.0101
     23 CG          7.0617   32.9581   17.7972 C.3         1 PRO      -0.0425
     24 CD1         8.2816   33.8773   18.0981 C.3         1 PRO      -0.0625
     25 CD2         6.1726   32.7976   19.0629 C.3         1 PRO      -0.0625
     26 N           4.7085   34.3511   14.2736 N.am        1 PRO      -0.2616
     27 CA          4.2380   34.8245   13.0022 C.3         1 PRO       0.1538
     28 C           2.7731   34.8768   12.9886 C.2         1 PRO       0.2045
     29 O           2.2516   35.7089   13.7232 O.2         1 PRO      -0.3944
     30 CB          4.9692   34.0983   11.8321 C.3         1 PRO       0.0843
     31 OG          5.3341   32.7563   12.1332 O.3         1 PRO      -0.3903
     32 N           2.0270   34.0644   12.2454 N.am        1 PRO      -0.2748
     33 C1          0.5960   34.1317   12.0904 C.3         1 PRO       0.0911
     34 C2          0.2982   34.6825   10.6609 C.3         1 PRO       0.0089
     35 C3          0.5342   36.1604   10.5794 C.ar        1 PRO      -0.0406
     36 C4         -0.5564   37.0607   10.4941 C.ar        1 PRO      -0.0603
     37 C5          1.8402   36.7051   10.6397 C.ar        1 PRO      -0.0603
     38 C6         -0.3498   38.4553   10.5049 C.ar        1 PRO      -0.0686
     39 C7          2.0501   38.0987   10.6472 C.ar        1 PRO      -0.0686
     40 C8          0.9540   38.9741   10.5881 C.ar        1 PRO      -0.0687
     41 C9         -0.0544   32.7506   12.4176 C.3         1 PRO      -0.0062
     42 N2          0.1507   32.4059   13.8551 N.4         1 PRO       0.2479
     43 C10        -0.9829   31.9458   14.7237 C.3         1 PRO       0.0676
     44 C11        -0.3784   31.7118   16.1531 C.3         1 PRO       0.0169
     45 C12        -1.3225   31.5464   17.3798 C.3         1 PRO       0.0007
     46 SD         -2.3986   30.0875   17.2957 S.3         1 PRO      -0.1638
     47 C13        -1.4533   28.9355   18.3186 C.3         1 PRO      -0.0181
     48 C          -2.1507   32.8379   14.7518 C.2         1 PRO       0.2268
     49 O          -3.2182   32.3703   15.1320 O.2         1 PRO      -0.3907
     50 N          -2.0810   34.1144   14.3857 N.am        1 PRO      -0.2613
     51 CA         -3.1533   35.0854   14.3312 C.3         1 PRO       0.1283
     52 C          -3.5736   35.3972   12.9618 C.2         1 PRO       0.2032
     53 O          -3.0450   34.8230   12.0158 O.2         1 PRO      -0.3944
     54 CB         -2.6666   36.3679   15.0633 C.3         1 PRO      -0.0244
     55 N          -4.5534   36.2774   12.7496 N.am        1 PRO      -0.2677
     56 CA         -5.0610   36.7006   11.4700 C.3         1 PRO       0.1056
     57 C          -4.0412   37.4486   10.6968 C.2         1 PRO       0.0621
     58 O          -3.2180   38.3251   11.3171 O.co2       1 PRO      -0.5664
     59 CB         -6.3923   37.5021   11.5989 C.3         1 PRO       0.0372
     60 CG         -6.2717   38.8336   12.2361 C.2         1 PRO       0.0555
     61 ND1        -6.4259   39.1095   13.5363 N.pl3       1 PRO      -0.2623
     62 CD2        -5.9619   40.0387   11.6119 C.2         1 PRO      -0.0276
     63 CE1        -6.2081   40.4224   13.7175 C.2         1 PRO       0.0875
     64 NE2        -5.9188   41.0041   12.5418 N.2         1 PRO      -0.3437
     65 OXT        -4.1597   37.5422    9.3521 O.co2       1 PRO      -0.5664
     66 H1          7.5805   30.0110   17.8049 H           1 PRO       0.2035
     67 H2          8.8660   29.3069   17.0020 H           1 PRO       0.2035
     68 H3          8.0878   27.2338   17.2315 H           1 PRO       0.1099
     69 H4          7.2166   26.4391   19.3122 H           1 PRO       0.0347
     70 H5          6.4618   28.0004   19.7112 H           1 PRO       0.0347
     71 H6          9.3896   27.2591   19.8163 H           1 PRO       0.0320
     72 H7          8.4552   28.2817   20.9348 H           1 PRO       0.0320
     73 H8          8.7759   30.1848   19.5913 H           1 PRO       0.0814
     74 H9         10.0822   29.2492   18.8245 H           1 PRO       0.0814
     75 H10         5.4238   29.3057   18.4023 H           1 PRO       0.1886
     76 H11         3.9589   28.9093   15.8873 H           1 PRO       0.0824
     77 H12         2.9343   27.4658   17.5166 H           1 PRO       0.0491
     78 H13         1.8770   28.8369   17.2232 H           1 PRO       0.0491
     79 H14         2.8354   30.8804   19.3092 H           1 PRO       0.2386
     80 H15         2.5721   26.8607   20.0257 H           1 PRO       0.0324
     81 H16         2.5839   30.5735   21.7535 H           1 PRO       0.1149
     82 H17         5.6625   30.9616   16.0752 H           1 PRO       0.1883
     83 H18         4.2040   33.3378   16.9413 H           1 PRO       0.0800
     84 H19         6.1899   34.5584   16.6282 H           1 PRO       0.0315
     85 H20         6.9470   33.2879   15.6629 H           1 PRO       0.0315
     86 H21         7.4687   31.9739   17.5532 H           1 PRO       0.0298
     87 H22         8.8902   33.4592   18.9028 H           1 PRO       0.0232
     88 H23         7.9499   34.8757   18.3962 H           1 PRO       0.0232
     89 H24         8.9139   33.9752   17.2123 H           1 PRO       0.0232
     90 H25         5.4455   31.9982   18.9136 H           1 PRO       0.0232
     91 H26         5.6398   33.7284   19.2819 H           1 PRO       0.0232
     92 H27         6.7867   32.5263   19.9273 H           1 PRO       0.0232
     93 H28         5.3233   34.9406   14.7326 H           1 PRO       0.1884
     94 H29         4.5725   35.8657   12.9221 H           1 PRO       0.0823
     95 H30         5.8927   34.6442   11.6059 H           1 PRO       0.0606
     96 H31         4.3572   34.0934   10.9253 H           1 PRO       0.0606
     97 H32         6.0958   32.5746   11.5366 H           1 PRO       0.2097
     98 H33         2.4928   33.4128   11.6901 H           1 PRO       0.1859
     99 H34         0.1452   34.8372   12.7995 H           1 PRO       0.0632
    100 H35        -0.7414   34.4607   10.4065 H           1 PRO       0.0450
    101 H36         0.9216   34.1732    9.9177 H           1 PRO       0.0450
    102 H37        -1.5113   36.7117   10.4365 H           1 PRO       0.0557
    103 H38         2.6548   36.0878   10.6680 H           1 PRO       0.0557
    104 H39        -1.1421   39.0966   10.4496 H           1 PRO       0.0599
    105 H40         3.0050   38.4687   10.6893 H           1 PRO       0.0599
    106 H41         1.1108   39.9867   10.5953 H           1 PRO       0.0559
    107 H42         0.3945   31.9749   11.7871 H           1 PRO       0.0839
    108 H43        -1.1202   32.7935   12.1881 H           1 PRO       0.0839
    109 H44         0.5464   33.2262   14.3144 H           1 PRO       0.2036
    110 H45         0.8696   31.6761   13.8800 H           1 PRO       0.2036
    111 H46        -1.3075   30.9784   14.3239 H           1 PRO       0.1099
    112 H47         0.2552   32.5706   16.3860 H           1 PRO       0.0354
    113 H48         0.2773   30.8365   16.1155 H           1 PRO       0.0354
    114 H49        -1.9625   32.4239   17.4540 H           1 PRO       0.0380
    115 H50        -0.7254   31.5268   18.2979 H           1 PRO       0.0380
    116 H51        -1.9933   27.9875   18.3654 H           1 PRO       0.0340
    117 H52        -1.3448   29.3279   19.3333 H           1 PRO       0.0340
    118 H53        -0.4668   28.7607   17.8854 H           1 PRO       0.0340
    119 H54        -1.2126   34.4294   14.0894 H           1 PRO       0.1884
    120 H55        -4.0346   34.7135   14.8665 H           1 PRO       0.0797
    121 H56        -3.4584   37.1193   15.1089 H           1 PRO       0.0277
    122 H57        -1.8055   36.8021   14.5453 H           1 PRO       0.0277
    123 H58        -2.3710   36.1315   16.0904 H           1 PRO       0.0277
    124 H59        -4.9875   36.6487   13.5390 H           1 PRO       0.1877
    125 H60        -5.3010   35.7960   10.9079 H           1 PRO       0.0750
    126 H61        -7.1098   36.9115   12.1719 H           1 PRO       0.0484
    127 H62        -6.8254   37.6346   10.6033 H           1 PRO       0.0484
    128 H63        -6.6491   38.4725   14.2327 H           1 PRO       0.2386
    129 H64        -5.7763   40.1713   10.6173 H           1 PRO       0.0324
    130 H65        -6.2448   40.9070   14.6172 H           1 PRO       0.1149
@<TRIPOS>BOND
     1     1     2   1
     2     1     7   1
     3     2     3   1
     4     2     5   1
     5     3     4   2
     6     3     8  am
     7     5     6   1
     8     6     7   1
     9     8     9   1
    10     9    10   1
    11     9    12   1
    12    10    11   2
    13    10    18  am
    14    12    13   1
    15    13    14   1
    16    13    15   2
    17    14    16   1
    18    15    17   1
    19    16    17   2
    20    18    19   1
    21    19    20   1
    22    19    22   1
    23    20    21   2
    24    20    26  am
    25    22    23   1
    26    23    24   1
    27    23    25   1
    28    26    27   1
    29    27    28   1
    30    27    30   1
    31    28    29   2
    32    28    32  am
    33    30    31   1
    34    32    33   1
    35    33    34   1
    36    33    41   1
    37    34    35   1
    38    35    36  ar
    39    35    37  ar
    40    36    38  ar
    41    37    39  ar
    42    38    40  ar
    43    39    40  ar
    44    41    42   1
    45    42    43   1
    46    43    44   1
    47    43    48   1
    48    44    45   1
    49    45    46   1
    50    46    47   1
    51    48    49   2
    52    48    50  am
    53    50    51   1
    54    51    52   1
    55    51    54   1
    56    52    53   2
    57    52    55  am
    58    55    56   1
    59    56    57   1
    60    56    59   1
    61    57    58  ar
    62    57    65  ar
    63    59    60   1
    64    60    61   1
    65    60    62   2
    66    61    63   1
    67    62    64   1
    68    63    64   2
    69     1    66   1
    70     1    67   1
    71     2    68   1
    72     5    69   1
    73     5    70   1
    74     6    71   1
    75     6    72   1
    76     7    73   1
    77     7    74   1
    78     8    75   1
    79     9    76   1
    80    12    77   1
    81    12    78   1
    82    14    79   1
    83    15    80   1
    84    16    81   1
    85    18    82   1
    86    19    83   1
    87    22    84   1
    88    22    85   1
    89    23    86   1
    90    24    87   1
    91    24    88   1
    92    24    89   1
    93    25    90   1
    94    25    91   1
    95    25    92   1
    96    26    93   1
    97    27    94   1
    98    30    95   1
    99    30    96   1
   100    31    97   1
   101    32    98   1
   102    33    99   1
   103    34   100   1
   104    34   101   1
   105    36   102   1
   106    37   103   1
   107    38   104   1
   108    39   105   1
   109    40   106   1
   110    41   107   1
   111    41   108   1
   112    42   109   1
   113    42   110   1
   114    43   111   1
   115    44   112   1
   116    44   113   1
   117    45   114   1
   118    45   115   1
   119    47   116   1
   120    47   117   1
   121    47   118   1
   122    50   119   1
   123    51   120   1
   124    54   121   1
   125    54   122   1
   126    54   123   1
   127    55   124   1
   128    56   125   1
   129    59   126   1
   130    59   127   1
   131    61   128   1
   132    62   129   1
   133    63   130   1
@<TRIPOS>SUBSTRUCTURE
     1  PRO      2

