@<TRIPOS>MOLECULE
3uri_ligand_040
   130   133
SMALL
GAST_HUCK
****
This file was generated by PARSER (from files_GN.cpp)

@<TRIPOS>ATOM
      1 N           0.8847   31.2942   16.6674 N.4         1 PRO       0.2461
      2 CA          2.0789   31.1820   15.8145 C.3         1 PRO       0.0670
      3 C           3.2969   31.2365   16.6128 C.2         1 PRO       0.2269
      4 O           3.8513   32.3174   16.8284 O.2         1 PRO      -0.3907
      5 CB          1.8847   32.3110   14.7775 C.3         1 PRO       0.0127
      6 CG          0.3796   32.2148   14.4825 C.3         1 PRO      -0.0053
      7 CD         -0.2370   31.7251   15.8137 C.3         1 PRO      -0.0313
      8 N           3.7407   30.1298   17.1980 N.am        1 PRO      -0.2592
      9 CA          4.7375   30.0442   18.2342 C.3         1 PRO       0.1422
     10 C           5.9046   30.8950   17.9803 C.2         1 PRO       0.2060
     11 O           6.9000   30.4317   17.4272 O.2         1 PRO      -0.3942
     12 CB          5.1104   28.5636   18.5430 C.3         1 PRO       0.0427
     13 CG          5.9669   27.9208   17.5237 C.2         1 PRO       0.0561
     14 ND1         5.6282   27.6429   16.2581 N.pl3       1 PRO      -0.2623
     15 CD2         7.3126   27.5902   17.6472 C.2         1 PRO      -0.0276
     16 CE1         6.7127   27.1872   15.6172 C.2         1 PRO       0.0875
     17 NE2         7.7592   27.1547   16.4590 N.2         1 PRO      -0.3437
     18 N           5.8316   32.1971   18.2329 N.am        1 PRO      -0.2636
     19 CA          6.8634   33.1807   18.0667 C.3         1 PRO       0.1312
     20 C           7.0375   33.4666   16.6379 C.2         1 PRO       0.2040
     21 O           8.0873   33.1878   16.0695 O.2         1 PRO      -0.3944
     22 CB          8.1663   32.8116   18.8641 C.3         1 PRO      -0.0101
     23 CG          7.9800   32.0355   20.2100 C.3         1 PRO      -0.0425
     24 CD1         9.3560   31.6387   20.8139 C.3         1 PRO      -0.0625
     25 CD2         7.1115   32.7866   21.2637 C.3         1 PRO      -0.0625
     26 N           6.0166   33.9685   15.9531 N.am        1 PRO      -0.2616
     27 CA          5.9419   34.1633   14.5242 C.3         1 PRO       0.1538
     28 C           4.8183   35.0273   14.1702 C.2         1 PRO       0.2045
     29 O           3.7740   34.9726   14.8115 O.2         1 PRO      -0.3944
     30 CB          5.8728   32.8069   13.7724 C.3         1 PRO       0.0843
     31 OG          5.5487   32.9989   12.3968 O.3         1 PRO      -0.3903
     32 N           4.9460   35.8677   13.1529 N.am        1 PRO      -0.2748
     33 C1          4.1443   37.0325   12.8771 C.3         1 PRO       0.0911
     34 C2          5.1277   38.1576   12.4165 C.3         1 PRO       0.0089
     35 C3          4.8549   39.6010   12.6907 C.ar        1 PRO      -0.0406
     36 C4          5.8067   40.5488   12.2464 C.ar        1 PRO      -0.0603
     37 C5          3.7194   40.0778   13.3941 C.ar        1 PRO      -0.0603
     38 C6          5.6397   41.9242   12.4819 C.ar        1 PRO      -0.0686
     39 C7          3.5520   41.4583   13.6386 C.ar        1 PRO      -0.0686
     40 C8          4.5096   42.3802   13.1863 C.ar        1 PRO      -0.0687
     41 C9          3.0672   36.7186   11.7987 C.3         1 PRO      -0.0062
     42 N2          1.6963   36.6091   12.3715 N.4         1 PRO       0.2479
     43 C10         0.5762   36.6446   11.3845 C.3         1 PRO       0.0676
     44 C11        -0.5276   35.6100   11.7652 C.3         1 PRO       0.0169
     45 C12        -1.2822   35.9154   13.0879 C.3         1 PRO       0.0007
     46 SD         -2.8065   34.9441   13.2043 S.3         1 PRO      -0.1638
     47 C13        -2.8492   34.7713   15.0003 C.3         1 PRO      -0.0181
     48 C          -0.0016   37.9773   11.2000 C.2         1 PRO       0.2268
     49 O           0.3537   38.8977   11.9320 O.2         1 PRO      -0.3907
     50 N          -0.9582   38.1651   10.3008 N.am        1 PRO      -0.2613
     51 CA         -1.6488   39.3927   10.0097 C.3         1 PRO       0.1283
     52 C          -2.9818   39.3276   10.5897 C.2         1 PRO       0.2032
     53 O          -3.3568   40.2516   11.3030 O.2         1 PRO      -0.3944
     54 CB         -1.6950   39.6285    8.4787 C.3         1 PRO      -0.0244
     55 N          -3.7835   38.3037   10.3139 N.am        1 PRO      -0.2677
     56 CA         -5.1441   38.1615   10.7447 C.3         1 PRO       0.1056
     57 C          -5.1705   38.1396   12.2258 C.2         1 PRO       0.0621
     58 O          -4.0260   37.9381   12.9127 O.co2       1 PRO      -0.5664
     59 CB         -5.7894   36.8935   10.1044 C.3         1 PRO       0.0372
     60 CG         -7.2682   36.8944   10.1664 C.2         1 PRO       0.0555
     61 ND1        -8.0810   36.8967    9.0955 N.pl3       1 PRO      -0.2623
     62 CD2        -8.0974   36.9151   11.2814 C.2         1 PRO      -0.0276
     63 CE1        -9.3492   36.9246    9.5251 C.2         1 PRO       0.0875
     64 NE2        -9.3773   36.9379   10.8676 N.2         1 PRO      -0.3437
     65 OXT        -6.1959   38.7531   12.8784 O.co2       1 PRO      -0.5664
     66 H1          1.0475   32.0107   17.3831 H           1 PRO       0.2035
     67 H2          0.6739   30.3977   17.1122 H           1 PRO       0.2035
     68 H3          2.0310   30.2136   15.2906 H           1 PRO       0.1099
     69 H4          2.4814   32.1551   13.8743 H           1 PRO       0.0347
     70 H5          2.1118   33.2962   15.2057 H           1 PRO       0.0347
     71 H6          0.2040   31.4770   13.6920 H           1 PRO       0.0320
     72 H7         -0.0373   33.1771   14.1729 H           1 PRO       0.0320
     73 H8         -0.7778   32.5342   16.3156 H           1 PRO       0.0814
     74 H9         -0.9242   30.8922   15.6392 H           1 PRO       0.0814
     75 H10         3.2338   29.3162   17.0212 H           1 PRO       0.1886
     76 H11         4.2443   30.3995   19.1434 H           1 PRO       0.0824
     77 H12         4.1988   27.9644   18.6309 H           1 PRO       0.0491
     78 H13         5.6156   28.5284   19.5122 H           1 PRO       0.0491
     79 H14         4.7605   27.7988   15.8624 H           1 PRO       0.2386
     80 H15         7.8866   27.7049   18.4873 H           1 PRO       0.0324
     81 H16         6.7534   26.9266   14.6314 H           1 PRO       0.1149
     82 H17         4.9974   32.5168   18.6248 H           1 PRO       0.1883
     83 H18         6.4858   34.1019   18.5188 H           1 PRO       0.0800
     84 H19         8.7141   33.7382   19.0632 H           1 PRO       0.0315
     85 H20         8.7966   32.1894   18.2215 H           1 PRO       0.0315
     86 H21         7.4604   31.1015   19.9786 H           1 PRO       0.0298
     87 H22         9.2191   31.0049   21.6923 H           1 PRO       0.0232
     88 H23         9.9260   32.5223   21.1072 H           1 PRO       0.0232
     89 H24         9.9432   31.0744   20.0863 H           1 PRO       0.0232
     90 H25         6.1047   32.9571   20.8855 H           1 PRO       0.0232
     91 H26         7.5513   33.7483   21.5191 H           1 PRO       0.0232
     92 H27         7.0282   32.1971   22.1789 H           1 PRO       0.0232
     93 H28         5.2271   34.2087   16.4651 H           1 PRO       0.1884
     94 H29         6.8627   34.6695   14.2191 H           1 PRO       0.0823
     95 H30         5.1242   32.1510   14.2239 H           1 PRO       0.0606
     96 H31         6.8418   32.3074   13.8244 H           1 PRO       0.0606
     97 H32         5.6212   32.1134   11.9859 H           1 PRO       0.2097
     98 H33         5.7676   35.7895   12.6353 H           1 PRO       0.1859
     99 H34         3.6534   37.3724   13.7933 H           1 PRO       0.0632
    100 H35         5.2567   38.0522   11.3338 H           1 PRO       0.0450
    101 H36         6.1019   37.9619   12.8717 H           1 PRO       0.0450
    102 H37         6.6451   40.2440   11.7416 H           1 PRO       0.0557
    103 H38         3.0123   39.4371   13.7435 H           1 PRO       0.0557
    104 H39         6.3384   42.5941   12.1468 H           1 PRO       0.0599
    105 H40         2.7269   41.7887   14.1449 H           1 PRO       0.0599
    106 H41         4.3897   43.3792   13.3702 H           1 PRO       0.0559
    107 H42         3.3058   35.7856   11.2844 H           1 PRO       0.0839
    108 H43         3.0898   37.5109   11.0460 H           1 PRO       0.0839
    109 H44         1.5564   37.3724   13.0388 H           1 PRO       0.2036
    110 H45         1.6438   35.7265   12.8904 H           1 PRO       0.2036
    111 H46         0.9905   36.3247   10.4226 H           1 PRO       0.1099
    112 H47        -0.0683   34.6204   11.8539 H           1 PRO       0.0354
    113 H48        -1.2448   35.5528   10.9414 H           1 PRO       0.0354
    114 H49        -1.5617   36.9697   13.1401 H           1 PRO       0.0380
    115 H50        -0.6292   35.6846   13.9329 H           1 PRO       0.0380
    116 H51        -3.7889   34.3011   15.2865 H           1 PRO       0.0340
    117 H52        -2.7732   35.7452   15.4862 H           1 PRO       0.0340
    118 H53        -2.0238   34.1339   15.3185 H           1 PRO       0.0340
    119 H54        -1.2509   37.3810    9.8073 H           1 PRO       0.1884
    120 H55        -1.1074   40.2504   10.4323 H           1 PRO       0.0797
    121 H56        -2.2245   40.5573    8.2581 H           1 PRO       0.0277
    122 H57        -2.2032   38.8079    7.9710 H           1 PRO       0.0277
    123 H58        -0.6818   39.7082    8.0813 H           1 PRO       0.0277
    124 H59        -3.4422   37.6297    9.7100 H           1 PRO       0.1877
    125 H60        -5.7073   39.0312   10.3874 H           1 PRO       0.0750
    126 H61        -5.4094   35.9824   10.5704 H           1 PRO       0.0484
    127 H62        -5.5029   36.8633    9.0510 H           1 PRO       0.0484
    128 H63        -7.7975   36.8823    8.1687 H           1 PRO       0.2386
    129 H64        -7.8030   36.9197   12.2610 H           1 PRO       0.0324
    130 H65       -10.1728   36.9322    8.9205 H           1 PRO       0.1149
@<TRIPOS>BOND
     1     1     2   1
     2     1     7   1
     3     2     3   1
     4     2     5   1
     5     3     4   2
     6     3     8  am
     7     5     6   1
     8     6     7   1
     9     8     9   1
    10     9    10   1
    11     9    12   1
    12    10    11   2
    13    10    18  am
    14    12    13   1
    15    13    14   1
    16    13    15   2
    17    14    16   1
    18    15    17   1
    19    16    17   2
    20    18    19   1
    21    19    20   1
    22    19    22   1
    23    20    21   2
    24    20    26  am
    25    22    23   1
    26    23    24   1
    27    23    25   1
    28    26    27   1
    29    27    28   1
    30    27    30   1
    31    28    29   2
    32    28    32  am
    33    30    31   1
    34    32    33   1
    35    33    34   1
    36    33    41   1
    37    34    35   1
    38    35    36  ar
    39    35    37  ar
    40    36    38  ar
    41    37    39  ar
    42    38    40  ar
    43    39    40  ar
    44    41    42   1
    45    42    43   1
    46    43    44   1
    47    43    48   1
    48    44    45   1
    49    45    46   1
    50    46    47   1
    51    48    49   2
    52    48    50  am
    53    50    51   1
    54    51    52   1
    55    51    54   1
    56    52    53   2
    57    52    55  am
    58    55    56   1
    59    56    57   1
    60    56    59   1
    61    57    58  ar
    62    57    65  ar
    63    59    60   1
    64    60    61   1
    65    60    62   2
    66    61    63   1
    67    62    64   1
    68    63    64   2
    69     1    66   1
    70     1    67   1
    71     2    68   1
    72     5    69   1
    73     5    70   1
    74     6    71   1
    75     6    72   1
    76     7    73   1
    77     7    74   1
    78     8    75   1
    79     9    76   1
    80    12    77   1
    81    12    78   1
    82    14    79   1
    83    15    80   1
    84    16    81   1
    85    18    82   1
    86    19    83   1
    87    22    84   1
    88    22    85   1
    89    23    86   1
    90    24    87   1
    91    24    88   1
    92    24    89   1
    93    25    90   1
    94    25    91   1
    95    25    92   1
    96    26    93   1
    97    27    94   1
    98    30    95   1
    99    30    96   1
   100    31    97   1
   101    32    98   1
   102    33    99   1
   103    34   100   1
   104    34   101   1
   105    36   102   1
   106    37   103   1
   107    38   104   1
   108    39   105   1
   109    40   106   1
   110    41   107   1
   111    41   108   1
   112    42   109   1
   113    42   110   1
   114    43   111   1
   115    44   112   1
   116    44   113   1
   117    45   114   1
   118    45   115   1
   119    47   116   1
   120    47   117   1
   121    47   118   1
   122    50   119   1
   123    51   120   1
   124    54   121   1
   125    54   122   1
   126    54   123   1
   127    55   124   1
   128    56   125   1
   129    59   126   1
   130    59   127   1
   131    61   128   1
   132    62   129   1
   133    63   130   1
@<TRIPOS>SUBSTRUCTURE
     1  PRO      2

