@<TRIPOS>MOLECULE
3uri_ligand_056
   130   133
SMALL
GAST_HUCK
****
This file was generated by PARSER (from files_GN.cpp)

@<TRIPOS>ATOM
      1 N           6.6436   28.0477   21.2694 N.4         1 PRO       0.2461
      2 CA          7.2046   28.9637   20.2596 C.3         1 PRO       0.0670
      3 C           6.4487   28.9073   19.0148 C.2         1 PRO       0.2269
      4 O           6.9322   28.3511   18.0332 O.2         1 PRO      -0.3907
      5 CB          8.7000   28.5652   20.2059 C.3         1 PRO       0.0127
      6 CG          9.0310   28.2417   21.6693 C.3         1 PRO      -0.0053
      7 CD          7.6986   27.7194   22.2467 C.3         1 PRO      -0.0313
      8 N           5.2594   29.4929   18.9521 N.am        1 PRO      -0.2592
      9 CA          4.3661   29.5205   17.8222 C.3         1 PRO       0.1422
     10 C           4.4653   30.8372   17.1878 C.2         1 PRO       0.2060
     11 O           3.4694   31.5188   16.9755 O.2         1 PRO      -0.3942
     12 CB          2.9440   29.0786   18.3147 C.3         1 PRO       0.0427
     13 CG          2.2465   28.1871   17.3619 C.2         1 PRO       0.0561
     14 ND1         1.4129   28.5396   16.3706 N.pl3       1 PRO      -0.2623
     15 CD2         2.3342   26.7960   17.3135 C.2         1 PRO      -0.0276
     16 CE1         1.0053   27.4260   15.7439 C.2         1 PRO       0.0875
     17 NE2         1.5722   26.3429   16.3068 N.2         1 PRO      -0.3437
     18 N           5.6700   31.2765   16.8248 N.am        1 PRO      -0.2636
     19 CA          6.0108   32.5365   16.2062 C.3         1 PRO       0.1312
     20 C           5.3019   32.7854   14.9488 C.2         1 PRO       0.2040
     21 O           4.5826   31.9278   14.4535 O.2         1 PRO      -0.3944
     22 CB          7.5711   32.5988   16.0107 C.3         1 PRO      -0.0101
     23 CG          8.4082   33.1569   17.2097 C.3         1 PRO      -0.0425
     24 CD1         8.0891   34.6473   17.5236 C.3         1 PRO      -0.0625
     25 CD2         8.3230   32.2786   18.4870 C.3         1 PRO      -0.0625
     26 N           5.4273   33.9840   14.3742 N.am        1 PRO      -0.2616
     27 CA          4.8127   34.4713   13.1656 C.3         1 PRO       0.1538
     28 C           3.3589   34.5041   13.3085 C.2         1 PRO       0.2045
     29 O           2.9003   35.3149   14.1034 O.2         1 PRO      -0.3944
     30 CB          5.3943   33.8095   11.8798 C.3         1 PRO       0.0843
     31 OG          5.8918   32.4956   12.1178 O.3         1 PRO      -0.3903
     32 N           2.5450   33.7162   12.6170 N.am        1 PRO      -0.2748
     33 C1          1.1012   33.7621   12.5949 C.3         1 PRO       0.0911
     34 C2          0.6514   34.2513   11.1795 C.3         1 PRO       0.0089
     35 C3          0.9608   35.6969   10.9696 C.ar        1 PRO      -0.0406
     36 C4         -0.0734   36.6693   10.9913 C.ar        1 PRO      -0.0603
     37 C5          2.2971   36.1339   10.8093 C.ar        1 PRO      -0.0603
     38 C6          0.2275   38.0379   10.8540 C.ar        1 PRO      -0.0686
     39 C7          2.5967   37.5050   10.6966 C.ar        1 PRO      -0.0686
     40 C8          1.5615   38.4611   10.7066 C.ar        1 PRO      -0.0687
     41 C9          0.5111   32.3753   13.0300 C.3         1 PRO      -0.0062
     42 N2          0.2431   32.3233   14.5001 N.4         1 PRO       0.2479
     43 C10        -1.1505   32.4805   15.0470 C.3         1 PRO       0.0676
     44 C11        -2.0767   33.4559   14.2374 C.3         1 PRO       0.0169
     45 C12        -3.1702   34.2373   15.0194 C.3         1 PRO       0.0007
     46 SD         -4.3473   33.2130   15.9454 S.3         1 PRO      -0.1638
     47 C13        -5.6998   34.4111   16.0282 C.3         1 PRO      -0.0181
     48 C          -1.7410   31.1570   15.2647 C.2         1 PRO       0.2268
     49 O          -1.7681   30.3752   14.3211 O.2         1 PRO      -0.3907
     50 N          -2.2650   30.8309   16.4451 N.am        1 PRO      -0.2613
     51 CA         -2.9083   29.5971   16.8207 C.3         1 PRO       0.1283
     52 C          -4.2994   29.8505   17.1836 C.2         1 PRO       0.2032
     53 O          -4.5499   30.7163   18.0150 O.2         1 PRO      -0.3944
     54 CB         -2.1626   28.9458   18.0135 C.3         1 PRO      -0.0244
     55 N          -5.2683   29.0746   16.7039 N.am        1 PRO      -0.2677
     56 CA         -6.6596   29.1065   17.0674 C.3         1 PRO       0.1056
     57 C          -6.8305   28.7560   18.4984 C.2         1 PRO       0.0621
     58 O          -6.4004   27.5666   18.9766 O.co2       1 PRO      -0.5664
     59 CB         -7.4605   28.1343   16.1480 C.3         1 PRO       0.0372
     60 CG         -8.8950   27.9747   16.4810 C.2         1 PRO       0.0555
     61 ND1        -9.6941   28.8676   17.0816 N.pl3       1 PRO      -0.2623
     62 CD2        -9.6920   26.8582   16.2267 C.2         1 PRO      -0.0276
     63 CE1       -10.9189   28.3378   17.2005 C.2         1 PRO       0.0875
     64 NE2       -10.9310   27.0996   16.6774 N.2         1 PRO      -0.3437
     65 OXT        -7.3910   29.6346   19.3594 O.co2       1 PRO      -0.5664
     66 H1          6.3440   27.1823   20.8155 H           1 PRO       0.2035
     67 H2          5.8443   28.4790   21.7371 H           1 PRO       0.2035
     68 H3          7.1456   29.9872   20.6497 H           1 PRO       0.1099
     69 H4          9.3229   29.3781   19.8208 H           1 PRO       0.0347
     70 H5          8.8525   27.6696   19.5936 H           1 PRO       0.0347
     71 H6          9.3366   29.1523   22.1935 H           1 PRO       0.0320
     72 H7          9.8291   27.4968   21.7457 H           1 PRO       0.0320
     73 H8          7.7360   26.6330   22.3840 H           1 PRO       0.0814
     74 H9          7.4793   28.1921   23.2095 H           1 PRO       0.0814
     75 H10         4.9679   29.9635   19.7484 H           1 PRO       0.1886
     76 H11         4.6928   28.7867   17.0751 H           1 PRO       0.0824
     77 H12         2.3133   29.9472   18.5204 H           1 PRO       0.0491
     78 H13         3.0247   28.5339   19.2617 H           1 PRO       0.0491
     79 H14         1.1400   29.4470   16.1506 H           1 PRO       0.2386
     80 H15         2.8980   26.2106   17.9329 H           1 PRO       0.0324
     81 H16         0.3569   27.4010   14.9545 H           1 PRO       0.1149
     82 H17         6.4118   30.6834   17.0183 H           1 PRO       0.1883
     83 H18         5.7060   33.3316   16.8960 H           1 PRO       0.0800
     84 H19         7.8281   33.2160   15.1428 H           1 PRO       0.0315
     85 H20         7.9286   31.5936   15.7649 H           1 PRO       0.0315
     86 H21         9.4525   33.1245   16.8811 H           1 PRO       0.0298
     87 H22         8.8583   35.0564   18.1823 H           1 PRO       0.0232
     88 H23         7.1211   34.7479   18.0188 H           1 PRO       0.0232
     89 H24         8.0760   35.2410   16.6052 H           1 PRO       0.0232
     90 H25         8.5677   31.2420   18.2456 H           1 PRO       0.0232
     91 H26         7.3195   32.3148   18.9197 H           1 PRO       0.0232
     92 H27         9.0346   32.6362   19.2326 H           1 PRO       0.0232
     93 H28         5.9907   34.6281   14.8387 H           1 PRO       0.1884
     94 H29         5.1257   35.5250   13.0823 H           1 PRO       0.0823
     95 H30         6.2139   34.4310   11.5134 H           1 PRO       0.0606
     96 H31         4.6354   33.7640   11.0929 H           1 PRO       0.0606
     97 H32         6.2441   32.2113   11.2441 H           1 PRO       0.2097
     98 H33         2.9601   33.0468   12.0405 H           1 PRO       0.1859
     99 H34         0.7255   34.5023   13.3058 H           1 PRO       0.0632
    100 H35        -0.4218   34.0938   11.0729 H           1 PRO       0.0450
    101 H36         1.1271   33.6524   10.3957 H           1 PRO       0.0450
    102 H37        -1.0490   36.3866   11.1382 H           1 PRO       0.0557
    103 H38         3.0594   35.4468   10.7886 H           1 PRO       0.0557
    104 H39        -0.5257   38.7319   10.8654 H           1 PRO       0.0599
    105 H40         3.5667   37.8107   10.5851 H           1 PRO       0.0599
    106 H41         1.7783   39.4569   10.6180 H           1 PRO       0.0559
    107 H42         1.2240   31.5833   12.7801 H           1 PRO       0.0839
    108 H43        -0.3979   32.1492   12.4762 H           1 PRO       0.0839
    109 H44         0.8245   33.0528   14.9292 H           1 PRO       0.2036
    110 H45         0.6066   31.4265   14.8346 H           1 PRO       0.2036
    111 H46        -0.9893   32.9446   16.0240 H           1 PRO       0.1099
    112 H47        -2.5457   32.9120   13.4116 H           1 PRO       0.0354
    113 H48        -1.4315   34.2210   13.7914 H           1 PRO       0.0354
    114 H49        -3.7276   34.8230   14.2822 H           1 PRO       0.0380
    115 H50        -2.6885   34.9319   15.7117 H           1 PRO       0.0380
    116 H51        -6.4986   33.9993   16.6430 H           1 PRO       0.0340
    117 H52        -6.0916   34.6054   15.0277 H           1 PRO       0.0340
    118 H53        -5.3558   35.3478   16.4728 H           1 PRO       0.0340
    119 H54        -2.2319   31.5204   17.1304 H           1 PRO       0.1884
    120 H55        -2.8690   28.8791   15.9946 H           1 PRO       0.0797
    121 H56        -2.6620   28.0187   18.3094 H           1 PRO       0.0277
    122 H57        -2.1349   29.6160   18.8759 H           1 PRO       0.0277
    123 H58        -1.1387   28.7016   17.7341 H           1 PRO       0.0277
    124 H59        -5.0063   28.3976   16.0606 H           1 PRO       0.1877
    125 H60        -7.0352   30.1200   16.8895 H           1 PRO       0.0750
    126 H61        -6.9870   27.1480   16.1733 H           1 PRO       0.0484
    127 H62        -7.4061   28.4949   15.1152 H           1 PRO       0.0484
    128 H63        -9.4305   29.7513   17.3836 H           1 PRO       0.2386
    129 H64        -9.3915   25.9923   15.7771 H           1 PRO       0.0324
    130 H65       -11.7239   28.8028   17.6241 H           1 PRO       0.1149
@<TRIPOS>BOND
     1     1     2   1
     2     1     7   1
     3     2     3   1
     4     2     5   1
     5     3     4   2
     6     3     8  am
     7     5     6   1
     8     6     7   1
     9     8     9   1
    10     9    10   1
    11     9    12   1
    12    10    11   2
    13    10    18  am
    14    12    13   1
    15    13    14   1
    16    13    15   2
    17    14    16   1
    18    15    17   1
    19    16    17   2
    20    18    19   1
    21    19    20   1
    22    19    22   1
    23    20    21   2
    24    20    26  am
    25    22    23   1
    26    23    24   1
    27    23    25   1
    28    26    27   1
    29    27    28   1
    30    27    30   1
    31    28    29   2
    32    28    32  am
    33    30    31   1
    34    32    33   1
    35    33    34   1
    36    33    41   1
    37    34    35   1
    38    35    36  ar
    39    35    37  ar
    40    36    38  ar
    41    37    39  ar
    42    38    40  ar
    43    39    40  ar
    44    41    42   1
    45    42    43   1
    46    43    44   1
    47    43    48   1
    48    44    45   1
    49    45    46   1
    50    46    47   1
    51    48    49   2
    52    48    50  am
    53    50    51   1
    54    51    52   1
    55    51    54   1
    56    52    53   2
    57    52    55  am
    58    55    56   1
    59    56    57   1
    60    56    59   1
    61    57    58  ar
    62    57    65  ar
    63    59    60   1
    64    60    61   1
    65    60    62   2
    66    61    63   1
    67    62    64   1
    68    63    64   2
    69     1    66   1
    70     1    67   1
    71     2    68   1
    72     5    69   1
    73     5    70   1
    74     6    71   1
    75     6    72   1
    76     7    73   1
    77     7    74   1
    78     8    75   1
    79     9    76   1
    80    12    77   1
    81    12    78   1
    82    14    79   1
    83    15    80   1
    84    16    81   1
    85    18    82   1
    86    19    83   1
    87    22    84   1
    88    22    85   1
    89    23    86   1
    90    24    87   1
    91    24    88   1
    92    24    89   1
    93    25    90   1
    94    25    91   1
    95    25    92   1
    96    26    93   1
    97    27    94   1
    98    30    95   1
    99    30    96   1
   100    31    97   1
   101    32    98   1
   102    33    99   1
   103    34   100   1
   104    34   101   1
   105    36   102   1
   106    37   103   1
   107    38   104   1
   108    39   105   1
   109    40   106   1
   110    41   107   1
   111    41   108   1
   112    42   109   1
   113    42   110   1
   114    43   111   1
   115    44   112   1
   116    44   113   1
   117    45   114   1
   118    45   115   1
   119    47   116   1
   120    47   117   1
   121    47   118   1
   122    50   119   1
   123    51   120   1
   124    54   121   1
   125    54   122   1
   126    54   123   1
   127    55   124   1
   128    56   125   1
   129    59   126   1
   130    59   127   1
   131    61   128   1
   132    62   129   1
   133    63   130   1
@<TRIPOS>SUBSTRUCTURE
     1  PRO      2

