@<TRIPOS>MOLECULE
3uri_ligand_070
   130   133
SMALL
GAST_HUCK
****
This file was generated by PARSER (from files_GN.cpp)

@<TRIPOS>ATOM
      1 N           5.2034   31.2992   21.4470 N.4         1 PRO       0.2461
      2 CA          4.7289   29.9422   21.1258 C.3         1 PRO       0.0670
      3 C           5.0986   29.5291   19.7787 C.2         1 PRO       0.2269
      4 O           5.7089   28.4765   19.6128 O.2         1 PRO      -0.3907
      5 CB          3.2088   30.0404   21.3732 C.3         1 PRO       0.0127
      6 CG          3.1047   30.9632   22.6015 C.3         1 PRO      -0.0053
      7 CD          4.4087   31.7912   22.5839 C.3         1 PRO      -0.0313
      8 N           4.7763   30.2950   18.7420 N.am        1 PRO      -0.2592
      9 CA          5.0528   30.0534   17.3509 C.3         1 PRO       0.1422
     10 C           4.9373   31.3553   16.6948 C.2         1 PRO       0.2060
     11 O           3.8245   31.8403   16.4965 O.2         1 PRO      -0.3942
     12 CB          4.1885   28.9288   16.6632 C.3         1 PRO       0.0427
     13 CG          3.1543   28.3045   17.5162 C.2         1 PRO       0.0561
     14 ND1         3.1453   27.0355   17.9502 N.pl3       1 PRO      -0.2623
     15 CD2         2.0426   28.9166   18.0806 C.2         1 PRO      -0.0276
     16 CE1         2.0770   26.8630   18.7388 C.2         1 PRO       0.0875
     17 NE2         1.3936   28.0160   18.8341 N.2         1 PRO      -0.3437
     18 N           6.0358   32.0768   16.5017 N.am        1 PRO      -0.2636
     19 CA          6.1022   33.4624   16.1281 C.3         1 PRO       0.1312
     20 C           5.8190   33.6282   14.7073 C.2         1 PRO       0.2040
     21 O           6.3926   32.8896   13.9068 O.2         1 PRO      -0.3944
     22 CB          7.4966   34.0806   16.4827 C.3         1 PRO      -0.0101
     23 CG          8.0050   33.9624   17.9599 C.3         1 PRO      -0.0425
     24 CD1         6.8970   34.1290   19.0349 C.3         1 PRO      -0.0625
     25 CD2         8.8515   32.6832   18.2265 C.3         1 PRO      -0.0625
     26 N           4.9635   34.5718   14.3204 N.am        1 PRO      -0.2616
     27 CA          4.5043   34.9667   13.0060 C.3         1 PRO       0.1538
     28 C           3.1402   35.4880   13.1309 C.2         1 PRO       0.2045
     29 O           2.9764   36.4436   13.8811 O.2         1 PRO      -0.3944
     30 CB          4.6849   33.9006   11.8893 C.3         1 PRO       0.0843
     31 OG          4.1504   32.6565   12.3289 O.3         1 PRO      -0.3903
     32 N           2.1291   35.0458   12.3866 N.am        1 PRO      -0.2748
     33 C1          0.8086   35.6077   12.2911 C.3         1 PRO       0.0911
     34 C2          0.6707   36.4442   10.9839 C.3         1 PRO       0.0089
     35 C3          1.5335   37.6569   10.9336 C.ar        1 PRO      -0.0406
     36 C4          1.0241   38.9398   11.2523 C.ar        1 PRO      -0.0603
     37 C5          2.8824   37.5545   10.5172 C.ar        1 PRO      -0.0603
     38 C6          1.8422   40.0813   11.1660 C.ar        1 PRO      -0.0686
     39 C7          3.7005   38.6956   10.4241 C.ar        1 PRO      -0.0686
     40 C8          3.1807   39.9602   10.7476 C.ar        1 PRO      -0.0687
     41 C9         -0.2535   34.4749   12.3024 C.3         1 PRO      -0.0062
     42 N2         -0.2559   33.7247   13.5873 N.4         1 PRO       0.2479
     43 C10        -1.5807   33.2438   14.0829 C.3         1 PRO       0.0676
     44 C11        -1.3831   32.1924   15.2211 C.3         1 PRO       0.0169
     45 C12        -0.6678   30.8967   14.7595 C.3         1 PRO       0.0007
     46 SD         -0.7647   29.6173   16.0423 S.3         1 PRO      -0.1638
     47 C13         0.1357   28.3414   15.1376 C.3         1 PRO      -0.0181
     48 C          -2.4743   34.3121   14.5358 C.2         1 PRO       0.2268
     49 O          -3.6490   34.0332   14.7556 O.2         1 PRO      -0.3907
     50 N          -2.0528   35.5633   14.6963 N.am        1 PRO      -0.2613
     51 CA         -2.8479   36.6978   15.0655 C.3         1 PRO       0.1283
     52 C          -3.7713   37.0491   13.9913 C.2         1 PRO       0.2032
     53 O          -4.9739   37.0452   14.2212 O.2         1 PRO      -0.3944
     54 CB         -1.9101   37.8806   15.4160 C.3         1 PRO      -0.0244
     55 N          -3.3015   37.3075   12.7767 N.am        1 PRO      -0.2677
     56 CA         -4.0806   37.6167   11.6122 C.3         1 PRO       0.1056
     57 C          -4.8252   36.4244   11.1303 C.2         1 PRO       0.0621
     58 O          -5.7787   36.5421   10.1784 O.co2       1 PRO      -0.5664
     59 CB         -3.1226   38.1728   10.5162 C.3         1 PRO       0.0372
     60 CG         -3.7159   38.9190    9.3861 C.2         1 PRO       0.0555
     61 ND1        -3.0224   39.2808    8.2964 N.pl3       1 PRO      -0.2623
     62 CD2        -5.0011   39.4230    9.2093 C.2         1 PRO      -0.0276
     63 CE1        -3.8368   39.9629    7.4784 C.2         1 PRO       0.0875
     64 NE2        -5.0567   40.0601    8.0291 N.2         1 PRO      -0.3437
     65 OXT        -4.5124   35.1728   11.5389 O.co2       1 PRO      -0.5664
     66 H1          5.0295   31.9183   20.6520 H           1 PRO       0.2035
     67 H2          6.2004   31.2964   21.6699 H           1 PRO       0.2035
     68 H3          5.1591   29.2484   21.8535 H           1 PRO       0.1099
     69 H4          2.7636   29.0609   21.5622 H           1 PRO       0.0347
     70 H5          2.6983   30.5116   20.5280 H           1 PRO       0.0347
     71 H6          3.0505   30.3633   23.5170 H           1 PRO       0.0320
     72 H7          2.2196   31.6004   22.5436 H           1 PRO       0.0320
     73 H8          4.2031   32.8556   22.4558 H           1 PRO       0.0814
     74 H9          4.9691   31.6448   23.5125 H           1 PRO       0.0814
     75 H10         4.3112   31.1230   18.9498 H           1 PRO       0.1886
     76 H11         6.0991   29.7368   17.2876 H           1 PRO       0.0824
     77 H12         4.8583   28.1368   16.3185 H           1 PRO       0.0491
     78 H13         3.6834   29.3088   15.7706 H           1 PRO       0.0491
     79 H14         3.8049   26.3605   17.7338 H           1 PRO       0.2386
     80 H15         1.7737   29.8930   17.9620 H           1 PRO       0.0324
     81 H16         1.8293   25.9913   19.2077 H           1 PRO       0.1149
     82 H17         6.8827   31.6473   16.6923 H           1 PRO       0.1883
     83 H18         5.3544   34.0147   16.7142 H           1 PRO       0.0800
     84 H19         7.4321   35.1476   16.2545 H           1 PRO       0.0315
     85 H20         8.2524   33.6640   15.8179 H           1 PRO       0.0315
     86 H21         8.7012   34.7995   18.1113 H           1 PRO       0.0298
     87 H22         7.3354   34.1450   20.0348 H           1 PRO       0.0232
     88 H23         6.1832   33.3058   18.9960 H           1 PRO       0.0232
     89 H24         6.3616   35.0664   18.8834 H           1 PRO       0.0232
     90 H25         9.6639   32.6093   17.5018 H           1 PRO       0.0232
     91 H26         8.2428   31.7821   18.1670 H           1 PRO       0.0232
     92 H27         9.2957   32.7238   19.2245 H           1 PRO       0.0232
     93 H28         4.6625   35.1521   15.0363 H           1 PRO       0.1884
     94 H29         5.1251   35.8202   12.7196 H           1 PRO       0.0823
     95 H30         5.7441   33.7804   11.6624 H           1 PRO       0.0606
     96 H31         4.2001   34.2047   10.9594 H           1 PRO       0.0606
     97 H32         4.6734   31.9640   11.8692 H           1 PRO       0.2097
     98 H33         2.3130   34.3240   11.7711 H           1 PRO       0.1859
     99 H34         0.5919   36.2612   13.1409 H           1 PRO       0.0632
    100 H35        -0.3697   36.7629   10.8803 H           1 PRO       0.0450
    101 H36         0.8798   35.8153   10.1116 H           1 PRO       0.0450
    102 H37         0.0525   39.0497   11.5525 H           1 PRO       0.0557
    103 H38         3.2734   36.6394   10.2707 H           1 PRO       0.0557
    104 H39         1.4571   41.0042   11.3931 H           1 PRO       0.0599
    105 H40         4.6685   38.6065   10.1080 H           1 PRO       0.0599
    106 H41         3.7701   40.7911   10.6737 H           1 PRO       0.0559
    107 H42        -0.0661   33.7656   11.4906 H           1 PRO       0.0839
    108 H43        -1.2389   34.9216   12.1231 H           1 PRO       0.0839
    109 H44         0.1562   34.3143   14.3120 H           1 PRO       0.2036
    110 H45         0.3617   32.9192   13.4670 H           1 PRO       0.2036
    111 H46        -2.0777   32.7302   13.2526 H           1 PRO       0.1099
    112 H47        -2.3690   31.9063   15.6091 H           1 PRO       0.0354
    113 H48        -0.8166   32.6429   16.0421 H           1 PRO       0.0354
    114 H49         0.3875   31.0966   14.5463 H           1 PRO       0.0380
    115 H50        -1.1504   30.5224   13.8499 H           1 PRO       0.0380
    116 H51         0.1455   27.4274   15.7336 H           1 PRO       0.0340
    117 H52         1.1661   28.6583   14.9535 H           1 PRO       0.0340
    118 H53        -0.3636   28.1406   14.1865 H           1 PRO       0.0340
    119 H54        -1.1174   35.7386   14.5236 H           1 PRO       0.1884
    120 H55        -3.3973   36.4505   15.9842 H           1 PRO       0.0797
    121 H56        -2.4922   38.7653   15.6848 H           1 PRO       0.0277
    122 H57        -1.2649   38.1280   14.5712 H           1 PRO       0.0277
    123 H58        -1.2768   37.6172   16.2671 H           1 PRO       0.0277
    124 H59        -2.3382   37.2931   12.6683 H           1 PRO       0.1877
    125 H60        -4.7940   38.3969   11.8905 H           1 PRO       0.0750
    126 H61        -2.5486   37.3408   10.1014 H           1 PRO       0.0484
    127 H62        -2.4138   38.8581   10.9862 H           1 PRO       0.0484
    128 H63        -2.0909   39.0748    8.1199 H           1 PRO       0.2386
    129 H64        -5.7837   39.3367    9.8576 H           1 PRO       0.0324
    130 H65        -3.5720   40.3451    6.5703 H           1 PRO       0.1149
@<TRIPOS>BOND
     1     1     2   1
     2     1     7   1
     3     2     3   1
     4     2     5   1
     5     3     4   2
     6     3     8  am
     7     5     6   1
     8     6     7   1
     9     8     9   1
    10     9    10   1
    11     9    12   1
    12    10    11   2
    13    10    18  am
    14    12    13   1
    15    13    14   1
    16    13    15   2
    17    14    16   1
    18    15    17   1
    19    16    17   2
    20    18    19   1
    21    19    20   1
    22    19    22   1
    23    20    21   2
    24    20    26  am
    25    22    23   1
    26    23    24   1
    27    23    25   1
    28    26    27   1
    29    27    28   1
    30    27    30   1
    31    28    29   2
    32    28    32  am
    33    30    31   1
    34    32    33   1
    35    33    34   1
    36    33    41   1
    37    34    35   1
    38    35    36  ar
    39    35    37  ar
    40    36    38  ar
    41    37    39  ar
    42    38    40  ar
    43    39    40  ar
    44    41    42   1
    45    42    43   1
    46    43    44   1
    47    43    48   1
    48    44    45   1
    49    45    46   1
    50    46    47   1
    51    48    49   2
    52    48    50  am
    53    50    51   1
    54    51    52   1
    55    51    54   1
    56    52    53   2
    57    52    55  am
    58    55    56   1
    59    56    57   1
    60    56    59   1
    61    57    58  ar
    62    57    65  ar
    63    59    60   1
    64    60    61   1
    65    60    62   2
    66    61    63   1
    67    62    64   1
    68    63    64   2
    69     1    66   1
    70     1    67   1
    71     2    68   1
    72     5    69   1
    73     5    70   1
    74     6    71   1
    75     6    72   1
    76     7    73   1
    77     7    74   1
    78     8    75   1
    79     9    76   1
    80    12    77   1
    81    12    78   1
    82    14    79   1
    83    15    80   1
    84    16    81   1
    85    18    82   1
    86    19    83   1
    87    22    84   1
    88    22    85   1
    89    23    86   1
    90    24    87   1
    91    24    88   1
    92    24    89   1
    93    25    90   1
    94    25    91   1
    95    25    92   1
    96    26    93   1
    97    27    94   1
    98    30    95   1
    99    30    96   1
   100    31    97   1
   101    32    98   1
   102    33    99   1
   103    34   100   1
   104    34   101   1
   105    36   102   1
   106    37   103   1
   107    38   104   1
   108    39   105   1
   109    40   106   1
   110    41   107   1
   111    41   108   1
   112    42   109   1
   113    42   110   1
   114    43   111   1
   115    44   112   1
   116    44   113   1
   117    45   114   1
   118    45   115   1
   119    47   116   1
   120    47   117   1
   121    47   118   1
   122    50   119   1
   123    51   120   1
   124    54   121   1
   125    54   122   1
   126    54   123   1
   127    55   124   1
   128    56   125   1
   129    59   126   1
   130    59   127   1
   131    61   128   1
   132    62   129   1
   133    63   130   1
@<TRIPOS>SUBSTRUCTURE
     1  PRO      2

