@<TRIPOS>MOLECULE
3uri_ligand_010
   130   133
SMALL
GAST_HUCK
****
This file was generated by PARSER (from files_GN.cpp)

@<TRIPOS>ATOM
      1 N           1.2628   30.8553   17.7790 N.4         1 PRO       0.2461
      2 CA          1.9899   30.6388   16.5127 C.3         1 PRO       0.0670
      3 C           3.4248   30.6702   16.7207 C.2         1 PRO       0.2269
      4 O           4.1293   31.4102   16.0451 O.2         1 PRO      -0.3907
      5 CB          1.3782   31.7201   15.5940 C.3         1 PRO       0.0127
      6 CG         -0.1042   31.7471   16.0029 C.3         1 PRO      -0.0053
      7 CD         -0.1212   31.2308   17.4555 C.3         1 PRO      -0.0313
      8 N           3.9475   29.8544   17.6292 N.am        1 PRO      -0.2592
      9 CA          5.3129   29.6413   18.0149 C.3         1 PRO       0.1422
     10 C           6.1802   30.8099   17.8470 C.2         1 PRO       0.2060
     11 O           7.3294   30.6854   17.4449 O.2         1 PRO      -0.3942
     12 CB          5.7992   28.2793   17.4157 C.3         1 PRO       0.0427
     13 CG          6.4905   27.4313   18.4100 C.2         1 PRO       0.0561
     14 ND1         7.7883   27.4709   18.7380 N.pl3       1 PRO      -0.2623
     15 CD2         5.9076   26.4752   19.2398 C.2         1 PRO      -0.0276
     16 CE1         8.0054   26.5833   19.7189 C.2         1 PRO       0.0875
     17 NE2         6.8572   25.9671   20.0396 N.2         1 PRO      -0.3437
     18 N           5.6988   32.0081   18.1689 N.am        1 PRO      -0.2636
     19 CA          6.4001   33.2625   18.2310 C.3         1 PRO       0.1312
     20 C           6.6786   33.7882   16.8896 C.2         1 PRO       0.2040
     21 O           7.7872   34.2377   16.6166 O.2         1 PRO      -0.3944
     22 CB          7.6213   33.1671   19.2119 C.3         1 PRO      -0.0101
     23 CG          7.3692   32.3849   20.5424 C.3         1 PRO      -0.0425
     24 CD1         8.6857   31.7749   21.1061 C.3         1 PRO      -0.0625
     25 CD2         6.6697   33.2370   21.6406 C.3         1 PRO      -0.0625
     26 N           5.7104   33.7825   15.9765 N.am        1 PRO      -0.2616
     27 CA          5.7987   34.1828   14.5873 C.3         1 PRO       0.1538
     28 C           4.6391   34.9639   14.1575 C.2         1 PRO       0.2045
     29 O           3.5572   34.8031   14.7061 O.2         1 PRO      -0.3944
     30 CB          5.9633   32.9175   13.6981 C.3         1 PRO       0.0843
     31 OG          5.5892   33.1311   12.3362 O.3         1 PRO      -0.3903
     32 N           4.7331   35.7501   13.0816 N.am        1 PRO      -0.2748
     33 C1          3.6601   36.3921   12.3455 C.3         1 PRO       0.0911
     34 C2          2.7724   35.3050   11.6217 C.3         1 PRO       0.0089
     35 C3          1.3108   35.3050   11.9247 C.ar        1 PRO      -0.0406
     36 C4          0.8040   34.6009   13.0443 C.ar        1 PRO      -0.0603
     37 C5          0.4001   35.9963   11.0914 C.ar        1 PRO      -0.0603
     38 C6         -0.5758   34.5943   13.3250 C.ar        1 PRO      -0.0686
     39 C7         -0.9798   35.9915   11.3737 C.ar        1 PRO      -0.0686
     40 C8         -1.4675   35.2796   12.4819 C.ar        1 PRO      -0.0687
     41 C9          2.9135   37.4842   13.1774 C.3         1 PRO      -0.0062
     42 N2          3.7915   38.6238   13.5683 N.4         1 PRO       0.2479
     43 C10         3.9327   39.8551   12.7269 C.3         1 PRO       0.0676
     44 C11         4.1557   39.6178   11.1914 C.3         1 PRO       0.0169
     45 C12         2.9154   39.4679   10.2647 C.3         1 PRO       0.0007
     46 SD          2.0472   41.0421    9.9816 S.3         1 PRO      -0.1638
     47 C13         0.8667   40.4306    8.7588 C.3         1 PRO      -0.0181
     48 C           2.9680   40.9141   13.0434 C.2         1 PRO       0.2268
     49 O           1.8796   40.6233   13.5166 O.2         1 PRO      -0.3907
     50 N           3.2934   42.1846   12.8074 N.am        1 PRO      -0.2613
     51 CA          2.5255   43.3728   13.0902 C.3         1 PRO       0.1283
     52 C           2.4859   44.2841   11.9511 C.2         1 PRO       0.2032
     53 O           1.3918   44.6158   11.4980 O.2         1 PRO      -0.3944
     54 CB          3.1449   44.0931   14.3165 C.3         1 PRO      -0.0244
     55 N           3.6051   44.8476   11.4896 N.am        1 PRO      -0.2677
     56 CA          3.7038   45.9545   10.5758 C.3         1 PRO       0.1056
     57 C           2.8967   45.7615    9.3467 C.2         1 PRO       0.0621
     58 O           3.1438   44.7399    8.4928 O.co2       1 PRO      -0.5664
     59 CB          5.2040   46.2104   10.2216 C.3         1 PRO       0.0372
     60 CG          5.4364   47.5002    9.5320 C.2         1 PRO       0.0555
     61 ND1         5.2866   47.7336    8.2210 N.pl3       1 PRO      -0.2623
     62 CD2         5.8145   48.7087   10.1099 C.2         1 PRO      -0.0276
     63 CE1         5.5661   49.0246    7.9910 C.2         1 PRO       0.0875
     64 NE2         5.8927   49.6351    9.1424 N.2         1 PRO      -0.3437
     65 OXT         1.9050   46.6337    9.0396 O.co2       1 PRO      -0.5664
     66 H1          1.7201   31.6125   18.3000 H           1 PRO       0.2035
     67 H2          1.2719   30.0038   18.3451 H           1 PRO       0.2035
     68 H3          1.7266   29.6481   16.1255 H           1 PRO       0.1099
     69 H4          1.5028   31.4749   14.5346 H           1 PRO       0.0347
     70 H5          1.8309   32.6978   15.7952 H           1 PRO       0.0347
     71 H6         -0.6863   31.0789   15.3589 H           1 PRO       0.0320
     72 H7         -0.5196   32.7567   15.9307 H           1 PRO       0.0320
     73 H8         -0.4638   31.9967   18.1510 H           1 PRO       0.0814
     74 H9         -0.7656   30.3534   17.5495 H           1 PRO       0.0814
     75 H10         3.3063   29.2976   18.0952 H           1 PRO       0.1886
     76 H11         5.2453   29.4982   19.0997 H           1 PRO       0.0824
     77 H12         6.4550   28.4504   16.5584 H           1 PRO       0.0491
     78 H13         4.9359   27.7167   17.0446 H           1 PRO       0.0491
     79 H14         8.4562   28.0482   18.3382 H           1 PRO       0.2386
     80 H15         4.9220   26.2084   19.2556 H           1 PRO       0.0324
     81 H16         8.9075   26.4040   20.1597 H           1 PRO       0.1149
     82 H17         4.7771   32.0318   18.4606 H           1 PRO       0.1883
     83 H18         5.7063   33.9782   18.6804 H           1 PRO       0.0800
     84 H19         7.9469   34.1824   19.4558 H           1 PRO       0.0315
     85 H20         8.4467   32.6843   18.6811 H           1 PRO       0.0315
     86 H21         6.7143   31.5324   20.3274 H           1 PRO       0.0298
     87 H22         8.4649   31.1557   21.9775 H           1 PRO       0.0232
     88 H23         9.3826   32.5616   21.4014 H           1 PRO       0.0232
     89 H24         9.1673   31.1420   20.3567 H           1 PRO       0.0232
     90 H25         5.6751   33.5442   21.3116 H           1 PRO       0.0232
     91 H26         7.2590   34.1285   21.8689 H           1 PRO       0.0232
     92 H27         6.5490   32.6561   22.5583 H           1 PRO       0.0232
     93 H28         4.8451   33.4596   16.2787 H           1 PRO       0.1884
     94 H29         6.6781   34.8202   14.4763 H           1 PRO       0.0823
     95 H30         5.3377   32.1094   14.0851 H           1 PRO       0.0606
     96 H31         7.0046   32.5829   13.7149 H           1 PRO       0.0606
     97 H32         5.6305   32.2456   11.9110 H           1 PRO       0.2097
     98 H33         5.6195   35.8312   12.6887 H           1 PRO       0.1859
     99 H34         4.1644   36.9468   11.5466 H           1 PRO       0.0632
    100 H35         3.1553   34.2996   11.8346 H           1 PRO       0.0450
    101 H36         2.9003   35.4170   10.5397 H           1 PRO       0.0450
    102 H37         1.4373   34.0950   13.6667 H           1 PRO       0.0557
    103 H38         0.7409   36.5135   10.2785 H           1 PRO       0.0557
    104 H39        -0.9288   34.0870   14.1394 H           1 PRO       0.0599
    105 H40        -1.6256   36.5030   10.7683 H           1 PRO       0.0599
    106 H41        -2.4703   35.2729   12.6847 H           1 PRO       0.0559
    107 H42         2.5414   37.0332   14.0958 H           1 PRO       0.0839
    108 H43         2.0488   37.8576   12.6369 H           1 PRO       0.0839
    109 H44         4.7352   38.2487   13.6916 H           1 PRO       0.2036
    110 H45         3.4712   38.9429   14.4866 H           1 PRO       0.2036
    111 H46         4.8964   40.2411   13.0832 H           1 PRO       0.1099
    112 H47         4.7586   38.7048   11.0934 H           1 PRO       0.0354
    113 H48         4.7602   40.4465   10.7909 H           1 PRO       0.0354
    114 H49         2.2122   38.7373   10.6655 H           1 PRO       0.0380
    115 H50         3.2631   39.0985    9.2936 H           1 PRO       0.0380
    116 H51         0.2324   41.2583    8.4391 H           1 PRO       0.0340
    117 H52         0.2414   39.6514    9.1985 H           1 PRO       0.0340
    118 H53         1.3963   40.0355    7.8886 H           1 PRO       0.0340
    119 H54         4.1866   42.3417   12.4632 H           1 PRO       0.1884
    120 H55         1.4967   43.1061   13.3667 H           1 PRO       0.0797
    121 H56         2.5987   45.0150   14.5435 H           1 PRO       0.0277
    122 H57         4.1946   44.3415   14.1282 H           1 PRO       0.0277
    123 H58         3.0897   43.4439   15.1929 H           1 PRO       0.0277
    124 H59         4.4402   44.5383   11.8745 H           1 PRO       0.1877
    125 H60         3.3322   46.8410   11.1045 H           1 PRO       0.0750
    126 H61         5.5704   45.3961    9.5846 H           1 PRO       0.0484
    127 H62         5.8051   46.2010   11.1379 H           1 PRO       0.0484
    128 H63         5.0214   47.0790    7.5511 H           1 PRO       0.2386
    129 H64         6.0003   48.8721   11.0976 H           1 PRO       0.0324
    130 H65         5.5282   49.4753    7.0766 H           1 PRO       0.1149
@<TRIPOS>BOND
     1     1     2   1
     2     1     7   1
     3     2     3   1
     4     2     5   1
     5     3     4   2
     6     3     8  am
     7     5     6   1
     8     6     7   1
     9     8     9   1
    10     9    10   1
    11     9    12   1
    12    10    11   2
    13    10    18  am
    14    12    13   1
    15    13    14   1
    16    13    15   2
    17    14    16   1
    18    15    17   1
    19    16    17   2
    20    18    19   1
    21    19    20   1
    22    19    22   1
    23    20    21   2
    24    20    26  am
    25    22    23   1
    26    23    24   1
    27    23    25   1
    28    26    27   1
    29    27    28   1
    30    27    30   1
    31    28    29   2
    32    28    32  am
    33    30    31   1
    34    32    33   1
    35    33    34   1
    36    33    41   1
    37    34    35   1
    38    35    36  ar
    39    35    37  ar
    40    36    38  ar
    41    37    39  ar
    42    38    40  ar
    43    39    40  ar
    44    41    42   1
    45    42    43   1
    46    43    44   1
    47    43    48   1
    48    44    45   1
    49    45    46   1
    50    46    47   1
    51    48    49   2
    52    48    50  am
    53    50    51   1
    54    51    52   1
    55    51    54   1
    56    52    53   2
    57    52    55  am
    58    55    56   1
    59    56    57   1
    60    56    59   1
    61    57    58  ar
    62    57    65  ar
    63    59    60   1
    64    60    61   1
    65    60    62   2
    66    61    63   1
    67    62    64   1
    68    63    64   2
    69     1    66   1
    70     1    67   1
    71     2    68   1
    72     5    69   1
    73     5    70   1
    74     6    71   1
    75     6    72   1
    76     7    73   1
    77     7    74   1
    78     8    75   1
    79     9    76   1
    80    12    77   1
    81    12    78   1
    82    14    79   1
    83    15    80   1
    84    16    81   1
    85    18    82   1
    86    19    83   1
    87    22    84   1
    88    22    85   1
    89    23    86   1
    90    24    87   1
    91    24    88   1
    92    24    89   1
    93    25    90   1
    94    25    91   1
    95    25    92   1
    96    26    93   1
    97    27    94   1
    98    30    95   1
    99    30    96   1
   100    31    97   1
   101    32    98   1
   102    33    99   1
   103    34   100   1
   104    34   101   1
   105    36   102   1
   106    37   103   1
   107    38   104   1
   108    39   105   1
   109    40   106   1
   110    41   107   1
   111    41   108   1
   112    42   109   1
   113    42   110   1
   114    43   111   1
   115    44   112   1
   116    44   113   1
   117    45   114   1
   118    45   115   1
   119    47   116   1
   120    47   117   1
   121    47   118   1
   122    50   119   1
   123    51   120   1
   124    54   121   1
   125    54   122   1
   126    54   123   1
   127    55   124   1
   128    56   125   1
   129    59   126   1
   130    59   127   1
   131    61   128   1
   132    62   129   1
   133    63   130   1
@<TRIPOS>SUBSTRUCTURE
     1  PRO      2

