@<TRIPOS>MOLECULE
3uri_ligand_000
   130   133
SMALL
GAST_HUCK
****
This file was generated by PARSER (from files_GN.cpp)

@<TRIPOS>ATOM
      1 N           4.8740   27.5967   18.3685 N.4         1 PRO       0.2461
      2 CA          3.6838   28.4277   18.6293 C.3         1 PRO       0.0670
      3 C           3.2765   29.1606   17.4368 C.2         1 PRO       0.2269
      4 O           3.1567   28.5232   16.3984 O.2         1 PRO      -0.3907
      5 CB          4.1104   29.2501   19.8656 C.3         1 PRO       0.0127
      6 CG          4.9623   28.2677   20.6900 C.3         1 PRO      -0.0053
      7 CD          5.4934   27.2512   19.6579 C.3         1 PRO      -0.0313
      8 N           3.0042   30.4619   17.4752 N.am        1 PRO      -0.2592
      9 CA          2.7283   31.3198   16.3582 C.3         1 PRO       0.1422
     10 C           3.7115   32.3990   16.3936 C.2         1 PRO       0.2060
     11 O           3.3858   33.5315   16.7334 O.2         1 PRO      -0.3942
     12 CB          1.2446   31.7987   16.4105 C.3         1 PRO       0.0427
     13 CG          0.2961   30.8387   15.8082 C.2         1 PRO       0.0561
     14 ND1         0.4885   30.1834   14.6552 N.pl3       1 PRO      -0.2623
     15 CD2        -0.9730   30.4748   16.2512 C.2         1 PRO      -0.0276
     16 CE1        -0.6112   29.4609   14.3830 C.2         1 PRO       0.0875
     17 NE2        -1.5212   29.6313   15.3596 N.2         1 PRO      -0.3437
     18 N           4.9579   32.1459   15.9950 N.am        1 PRO      -0.2636
     19 CA          5.9678   33.1343   15.7230 C.3         1 PRO       0.1312
     20 C           5.7914   33.5694   14.3399 C.2         1 PRO       0.2040
     21 O           6.0912   32.8199   13.4203 O.2         1 PRO      -0.3944
     22 CB          7.4011   32.5827   15.9993 C.3         1 PRO      -0.0101
     23 CG          7.8289   32.5442   17.5021 C.3         1 PRO      -0.0425
     24 CD1         9.1679   31.7760   17.6774 C.3         1 PRO      -0.0625
     25 CD2         7.9432   33.9612   18.1393 C.3         1 PRO      -0.0625
     26 N           5.1654   34.7211   14.1270 N.am        1 PRO      -0.2616
     27 CA          4.8148   35.3656   12.8904 C.3         1 PRO       0.1538
     28 C           3.9821   36.5424   13.1439 C.2         1 PRO       0.2045
     29 O           3.2692   36.5924   14.1403 O.2         1 PRO      -0.3944
     30 CB          4.1056   34.4048   11.8881 C.3         1 PRO       0.0843
     31 OG          2.9835   33.7432   12.4680 O.3         1 PRO      -0.3903
     32 N           3.9608   37.5338   12.2617 N.am        1 PRO      -0.2748
     33 C1          3.1968   38.7526   12.3292 C.3         1 PRO       0.0911
     34 C2          1.7113   38.5588   12.7947 C.3         1 PRO       0.0089
     35 C3          1.0397   37.3169   12.3242 C.ar        1 PRO      -0.0406
     36 C4          1.2843   36.8018   11.0266 C.ar        1 PRO      -0.0603
     37 C5          0.1191   36.6177   13.1544 C.ar        1 PRO      -0.0603
     38 C6          0.6749   35.6163   10.5876 C.ar        1 PRO      -0.0686
     39 C7         -0.4928   35.4357   12.7181 C.ar        1 PRO      -0.0686
     40 C8         -0.2297   34.9305   11.4315 C.ar        1 PRO      -0.0687
     41 C9          3.9808   39.8331   13.1401 C.3         1 PRO      -0.0062
     42 N2          3.1380   41.0052   13.4752 N.4         1 PRO       0.2479
     43 C10         3.7650   42.3501   13.5837 C.3         1 PRO       0.0676
     44 C11         4.3051   42.8396   12.1967 C.3         1 PRO       0.0169
     45 C12         4.3990   44.3824   11.9802 C.3         1 PRO       0.0007
     46 SD          3.1855   45.0490   10.8073 S.3         1 PRO      -0.1638
     47 C13         4.0261   44.6316    9.2596 C.3         1 PRO      -0.0181
     48 C           2.7505   43.2193   14.1750 C.2         1 PRO       0.2268
     49 O           2.7495   43.3706   15.3953 O.2         1 PRO      -0.3907
     50 N           1.7851   43.7256   13.4187 N.am        1 PRO      -0.2613
     51 CA          0.6518   44.4996   13.8478 C.3         1 PRO       0.1283
     52 C          -0.5468   43.7179   13.5935 C.2         1 PRO       0.2032
     53 O          -0.7946   43.3623   12.4453 O.2         1 PRO      -0.3944
     54 CB          0.6408   45.8579   13.1092 C.3         1 PRO      -0.0244
     55 N          -1.3484   43.3564   14.5914 N.am        1 PRO      -0.2677
     56 CA         -2.5360   42.5530   14.4826 C.3         1 PRO       0.1056
     57 C          -3.6862   43.4158   14.1285 C.2         1 PRO       0.0621
     58 O          -4.3487   43.2417   12.9611 O.co2       1 PRO      -0.5664
     59 CB         -2.8047   41.7773   15.7996 C.3         1 PRO       0.0372
     60 CG         -1.8567   40.6629   16.0224 C.2         1 PRO       0.0555
     61 ND1        -0.6515   40.7379   16.6095 N.pl3       1 PRO      -0.2623
     62 CD2        -2.0537   39.3201   15.7112 C.2         1 PRO      -0.0276
     63 CE1        -0.1254   39.5062   16.6575 C.2         1 PRO       0.0875
     64 NE2        -0.9769   38.6233   16.1097 N.2         1 PRO      -0.3437
     65 OXT        -4.0780   44.4272   14.9413 O.co2       1 PRO      -0.5664
     66 H1          5.5468   28.1312   17.8141 H           1 PRO       0.2035
     67 H2          4.6189   26.7448   17.8642 H           1 PRO       0.2035
     68 H3          2.8639   27.7605   18.9161 H           1 PRO       0.1099
     69 H4          3.2465   29.6100   20.4292 H           1 PRO       0.0347
     70 H5          4.7308   30.1022   19.5728 H           1 PRO       0.0347
     71 H6          4.3400   27.7631   21.4353 H           1 PRO       0.0320
     72 H7          5.7807   28.7857   21.1999 H           1 PRO       0.0320
     73 H8          6.5811   27.3097   19.5654 H           1 PRO       0.0814
     74 H9          5.2140   26.2315   19.9378 H           1 PRO       0.0814
     75 H10         3.0185   30.8991   18.3417 H           1 PRO       0.1886
     76 H11         2.8655   30.8026   15.4026 H           1 PRO       0.0824
     77 H12         1.1355   32.7313   15.8474 H           1 PRO       0.0491
     78 H13         0.9510   32.0046   17.4428 H           1 PRO       0.0491
     79 H14         1.2908   30.2260   14.1006 H           1 PRO       0.2386
     80 H15        -1.4276   30.8049   17.1034 H           1 PRO       0.0324
     81 H16        -0.7368   28.8766   13.5510 H           1 PRO       0.1149
     82 H17         5.1569   31.2396   15.7083 H           1 PRO       0.1883
     83 H18         5.8257   33.9943   16.3861 H           1 PRO       0.0800
     84 H19         8.1335   33.1829   15.4458 H           1 PRO       0.0315
     85 H20         7.4470   31.5656   15.5907 H           1 PRO       0.0315
     86 H21         7.0640   31.9914   18.0607 H           1 PRO       0.0298
     87 H22         9.4557   31.7361   18.7279 H           1 PRO       0.0232
     88 H23         9.9687   32.2622   17.1127 H           1 PRO       0.0232
     89 H24         9.0603   30.7503   17.3198 H           1 PRO       0.0232
     90 H25         6.9772   34.4661   18.1551 H           1 PRO       0.0232
     91 H26         8.6517   34.5805   17.5792 H           1 PRO       0.0232
     92 H27         8.2889   33.8818   19.1719 H           1 PRO       0.0232
     93 H28         4.9381   35.2099   14.9322 H           1 PRO       0.1884
     94 H29         5.7456   35.7063   12.4311 H           1 PRO       0.0823
     95 H30         4.8079   33.6474   11.5335 H           1 PRO       0.0606
     96 H31         3.7588   34.9523   11.0055 H           1 PRO       0.0606
     97 H32         2.8155   32.9907   11.8611 H           1 PRO       0.2097
     98 H33         4.5172   37.4198   11.4740 H           1 PRO       0.1859
     99 H34         3.1528   39.1286   11.3049 H           1 PRO       0.0632
    100 H35         1.1112   39.4061   12.4410 H           1 PRO       0.0450
    101 H36         1.6844   38.6074   13.8885 H           1 PRO       0.0450
    102 H37         1.9314   37.2860   10.3967 H           1 PRO       0.0557
    103 H38        -0.0855   36.9687   14.0877 H           1 PRO       0.0557
    104 H39         0.8572   35.2502    9.6502 H           1 PRO       0.0599
    105 H40        -1.1442   34.9413   13.3331 H           1 PRO       0.0599
    106 H41        -0.6748   34.0707   11.1160 H           1 PRO       0.0559
    107 H42         4.8570   40.1288   12.5607 H           1 PRO       0.0839
    108 H43         4.3408   39.4081   14.0808 H           1 PRO       0.0839
    109 H44         2.7296   40.7841   14.3904 H           1 PRO       0.2036
    110 H45         2.3762   41.0735   12.7959 H           1 PRO       0.2036
    111 H46         4.6188   42.2765   14.2691 H           1 PRO       0.1099
    112 H47         3.6915   42.3894   11.4088 H           1 PRO       0.0354
    113 H48         5.3096   42.4330   12.0623 H           1 PRO       0.0354
    114 H49         5.4009   44.6583   11.6370 H           1 PRO       0.0380
    115 H50         4.2391   44.9015   12.9258 H           1 PRO       0.0380
    116 H51         3.3801   44.8884    8.4193 H           1 PRO       0.0340
    117 H52         4.2468   43.5635    9.2204 H           1 PRO       0.0340
    118 H53         4.9553   45.1992    9.1738 H           1 PRO       0.0340
    119 H54         1.8588   43.5631   12.4668 H           1 PRO       0.1884
    120 H55         0.7184   44.7261   14.9178 H           1 PRO       0.0797
    121 H56        -0.2241   46.4495   13.4147 H           1 PRO       0.0277
    122 H57         0.6031   45.7193   12.0255 H           1 PRO       0.0277
    123 H58         1.5434   46.4216   13.3516 H           1 PRO       0.0277
    124 H59        -1.0920   43.6295   15.4888 H           1 PRO       0.1877
    125 H60        -2.4000   41.8107   13.6899 H           1 PRO       0.0750
    126 H61        -3.8229   41.3738   15.7697 H           1 PRO       0.0484
    127 H62        -2.7444   42.4554   16.6609 H           1 PRO       0.0484
    128 H63        -0.2225   41.5319   16.9616 H           1 PRO       0.2386
    129 H64        -2.8764   38.9230   15.2568 H           1 PRO       0.0324
    130 H65         0.7761   39.2790   17.0701 H           1 PRO       0.1149
@<TRIPOS>BOND
     1     1     2   1
     2     1     7   1
     3     2     3   1
     4     2     5   1
     5     3     4   2
     6     3     8  am
     7     5     6   1
     8     6     7   1
     9     8     9   1
    10     9    10   1
    11     9    12   1
    12    10    11   2
    13    10    18  am
    14    12    13   1
    15    13    14   1
    16    13    15   2
    17    14    16   1
    18    15    17   1
    19    16    17   2
    20    18    19   1
    21    19    20   1
    22    19    22   1
    23    20    21   2
    24    20    26  am
    25    22    23   1
    26    23    24   1
    27    23    25   1
    28    26    27   1
    29    27    28   1
    30    27    30   1
    31    28    29   2
    32    28    32  am
    33    30    31   1
    34    32    33   1
    35    33    34   1
    36    33    41   1
    37    34    35   1
    38    35    36  ar
    39    35    37  ar
    40    36    38  ar
    41    37    39  ar
    42    38    40  ar
    43    39    40  ar
    44    41    42   1
    45    42    43   1
    46    43    44   1
    47    43    48   1
    48    44    45   1
    49    45    46   1
    50    46    47   1
    51    48    49   2
    52    48    50  am
    53    50    51   1
    54    51    52   1
    55    51    54   1
    56    52    53   2
    57    52    55  am
    58    55    56   1
    59    56    57   1
    60    56    59   1
    61    57    58  ar
    62    57    65  ar
    63    59    60   1
    64    60    61   1
    65    60    62   2
    66    61    63   1
    67    62    64   1
    68    63    64   2
    69     1    66   1
    70     1    67   1
    71     2    68   1
    72     5    69   1
    73     5    70   1
    74     6    71   1
    75     6    72   1
    76     7    73   1
    77     7    74   1
    78     8    75   1
    79     9    76   1
    80    12    77   1
    81    12    78   1
    82    14    79   1
    83    15    80   1
    84    16    81   1
    85    18    82   1
    86    19    83   1
    87    22    84   1
    88    22    85   1
    89    23    86   1
    90    24    87   1
    91    24    88   1
    92    24    89   1
    93    25    90   1
    94    25    91   1
    95    25    92   1
    96    26    93   1
    97    27    94   1
    98    30    95   1
    99    30    96   1
   100    31    97   1
   101    32    98   1
   102    33    99   1
   103    34   100   1
   104    34   101   1
   105    36   102   1
   106    37   103   1
   107    38   104   1
   108    39   105   1
   109    40   106   1
   110    41   107   1
   111    41   108   1
   112    42   109   1
   113    42   110   1
   114    43   111   1
   115    44   112   1
   116    44   113   1
   117    45   114   1
   118    45   115   1
   119    47   116   1
   120    47   117   1
   121    47   118   1
   122    50   119   1
   123    51   120   1
   124    54   121   1
   125    54   122   1
   126    54   123   1
   127    55   124   1
   128    56   125   1
   129    59   126   1
   130    59   127   1
   131    61   128   1
   132    62   129   1
   133    63   130   1
@<TRIPOS>SUBSTRUCTURE
     1  PRO      2

