@<TRIPOS>MOLECULE
3uri_ligand_007
   130   133
SMALL
GAST_HUCK
****
This file was generated by PARSER (from files_GN.cpp)

@<TRIPOS>ATOM
      1 N           4.8563   39.0326   10.8294 N.4         1 PRO       0.2461
      2 CA          4.9456   38.7125   12.2669 C.3         1 PRO       0.0670
      3 C           3.8631   37.8434   12.6851 C.2         1 PRO       0.2269
      4 O           3.1209   38.1533   13.6118 O.2         1 PRO      -0.3907
      5 CB          5.0297   40.1025   12.9332 C.3         1 PRO       0.0127
      6 CG          5.8898   40.9158   11.9527 C.3         1 PRO      -0.0053
      7 CD          5.6185   40.2678   10.5782 C.3         1 PRO      -0.0313
      8 N           3.7152   36.6794   12.0671 N.am        1 PRO      -0.2592
      9 CA          2.7178   35.6695   12.3202 C.3         1 PRO       0.1422
     10 C           3.0127   34.9057   13.5399 C.2         1 PRO       0.2060
     11 O           3.8057   35.3527   14.3562 O.2         1 PRO      -0.3942
     12 CB          2.6062   34.8005   11.0166 C.3         1 PRO       0.0427
     13 CG          1.2294   34.4027   10.6602 C.2         1 PRO       0.0561
     14 ND1         0.8267   33.1805   10.2902 N.pl3       1 PRO      -0.2623
     15 CD2         0.1233   35.2365   10.5206 C.2         1 PRO      -0.0276
     16 CE1        -0.4684   33.2480    9.9447 C.2         1 PRO       0.0875
     17 NE2        -0.9094   34.5078   10.0795 N.2         1 PRO      -0.3437
     18 N           2.3958   33.7560   13.8103 N.am        1 PRO      -0.2636
     19 CA          2.6450   32.8859   14.9420 C.3         1 PRO       0.1312
     20 C           4.0543   32.4732   14.9802 C.2         1 PRO       0.2040
     21 O           4.4988   31.8294   14.0370 O.2         1 PRO      -0.3944
     22 CB          1.6651   31.6670   14.8817 C.3         1 PRO      -0.0101
     23 CG          0.3326   31.8639   15.6863 C.3         1 PRO      -0.0425
     24 CD1        -0.7720   30.8635   15.2451 C.3         1 PRO      -0.0625
     25 CD2         0.5673   31.7636   17.2205 C.3         1 PRO      -0.0625
     26 N           4.8453   32.8779   15.9736 N.am        1 PRO      -0.2616
     27 CA          6.2789   32.7567   16.0695 C.3         1 PRO       0.1538
     28 C           6.6411   31.9748   17.2511 C.2         1 PRO       0.2045
     29 O           7.3562   32.4665   18.1145 O.2         1 PRO      -0.3944
     30 CB          6.8708   34.1979   16.0561 C.3         1 PRO       0.0843
     31 OG          6.4253   34.9493   14.9323 O.3         1 PRO      -0.3903
     32 N           6.3225   30.6846   17.3139 N.am        1 PRO      -0.2748
     33 C1          6.7628   29.7385   18.3083 C.3         1 PRO       0.0911
     34 C2          6.1958   29.9688   19.7518 C.3         1 PRO       0.0089
     35 C3          6.7184   31.1104   20.5618 C.ar        1 PRO      -0.0406
     36 C4          5.8299   31.9653   21.2546 C.ar        1 PRO      -0.0603
     37 C5          8.1105   31.2938   20.7620 C.ar        1 PRO      -0.0603
     38 C6          6.3054   32.9941   22.0878 C.ar        1 PRO      -0.0686
     39 C7          8.5887   32.3379   21.5746 C.ar        1 PRO      -0.0686
     40 C8          7.6891   33.1877   22.2422 C.ar        1 PRO      -0.0687
     41 C9          6.4977   28.2856   17.7941 C.3         1 PRO      -0.0062
     42 N2          5.1410   27.8858   17.3236 N.4         1 PRO       0.2479
     43 C10         3.9246   28.1389   18.1488 C.3         1 PRO       0.0676
     44 C11         2.6700   27.6787   17.3426 C.3         1 PRO       0.0169
     45 C12         1.2819   28.0628   17.9321 C.3         1 PRO       0.0007
     46 SD          0.3872   26.6533   18.6404 S.3         1 PRO      -0.1638
     47 C13        -1.1808   27.5052   18.9284 C.3         1 PRO      -0.0181
     48 C           3.9640   27.5324   19.4805 C.2         1 PRO       0.2268
     49 O           3.6345   28.2204   20.4402 O.2         1 PRO      -0.3907
     50 N           4.3847   26.2836   19.6516 N.am        1 PRO      -0.2613
     51 CA          4.6166   25.5685   20.8819 C.3         1 PRO       0.1283
     52 C           3.4336   24.9871   21.5076 C.2         1 PRO       0.2032
     53 O           2.3248   25.4755   21.3303 O.2         1 PRO      -0.3944
     54 CB          5.4480   26.3697   21.9184 C.3         1 PRO      -0.0244
     55 N           3.5860   23.8996   22.2582 N.am        1 PRO      -0.2677
     56 CA          2.5631   23.1126   22.8800 C.3         1 PRO       0.1056
     57 C           3.0308   22.7401   24.2351 C.2         1 PRO       0.0621
     58 O           2.8243   23.5644   25.2883 O.co2       1 PRO      -0.5664
     59 CB          2.2741   21.8525   22.0103 C.3         1 PRO       0.0372
     60 CG          1.5700   22.1960   20.7567 C.2         1 PRO       0.0555
     61 ND1         0.2468   22.3733   20.6353 N.pl3       1 PRO      -0.2623
     62 CD2         2.1176   22.4778   19.5074 C.2         1 PRO      -0.0276
     63 CE1        -0.0168   22.7462   19.3762 C.2         1 PRO       0.0875
     64 NE2         1.1246   22.8170   18.6706 N.2         1 PRO      -0.3437
     65 OXT         3.7396   21.6067   24.4463 O.co2       1 PRO      -0.5664
     66 H1          3.8780   39.1992   10.5795 H           1 PRO       0.2035
     67 H2          5.2206   38.2555   10.2693 H           1 PRO       0.2035
     68 H3          5.8853   38.1830   12.4474 H           1 PRO       0.1099
     69 H4          5.4848   40.0491   13.9270 H           1 PRO       0.0347
     70 H5          4.0368   40.5595   13.0138 H           1 PRO       0.0347
     71 H6          6.9486   40.8158   12.2102 H           1 PRO       0.0320
     72 H7          5.6178   41.9755   11.9691 H           1 PRO       0.0320
     73 H8          5.0277   40.9343    9.9439 H           1 PRO       0.0814
     74 H9          6.5549   40.0314   10.0675 H           1 PRO       0.0814
     75 H10         4.3241   36.5139   11.3267 H           1 PRO       0.1886
     76 H11         1.7643   36.1768   12.4863 H           1 PRO       0.0824
     77 H12         3.2356   33.9109   11.1040 H           1 PRO       0.0491
     78 H13         2.9764   35.3496   10.1456 H           1 PRO       0.0491
     79 H14         1.4044   32.4024   10.2265 H           1 PRO       0.2386
     80 H15         0.1036   36.2425   10.6919 H           1 PRO       0.0324
     81 H16        -1.0365   32.4731    9.5997 H           1 PRO       0.1149
     82 H17         1.7286   33.4586   13.1676 H           1 PRO       0.1883
     83 H18         2.4128   33.4560   15.8478 H           1 PRO       0.0800
     84 H19         2.1701   30.7668   15.2486 H           1 PRO       0.0315
     85 H20         1.4348   31.4811   13.8275 H           1 PRO       0.0315
     86 H21        -0.0570   32.8638   15.4758 H           1 PRO       0.0298
     87 H22        -1.6733   30.9956   15.8481 H           1 PRO       0.0232
     88 H23        -0.4288   29.8319   15.3513 H           1 PRO       0.0232
     89 H24        -1.0378   31.0384   14.2002 H           1 PRO       0.0232
     90 H25         1.3917   32.4072   17.5323 H           1 PRO       0.0232
     91 H26         0.8098   30.7373   17.5009 H           1 PRO       0.0232
     92 H27        -0.3290   32.0689   17.7647 H           1 PRO       0.0232
     93 H28         4.4199   33.3787   16.6899 H           1 PRO       0.1884
     94 H29         6.6900   32.2347   15.1975 H           1 PRO       0.0823
     95 H30         7.9616   34.1667   16.0228 H           1 PRO       0.0606
     96 H31         6.5705   34.7289   16.9620 H           1 PRO       0.0606
     97 H32         7.1203   34.8532   14.2482 H           1 PRO       0.2097
     98 H33         5.8569   30.3247   16.5443 H           1 PRO       0.1859
     99 H34         7.8520   29.8171   18.3733 H           1 PRO       0.0632
    100 H35         6.3936   29.0808   20.3537 H           1 PRO       0.0450
    101 H36         5.1175   30.0527   19.6703 H           1 PRO       0.0450
    102 H37         4.8174   31.8332   21.1820 H           1 PRO       0.0557
    103 H38         8.7888   30.6717   20.3143 H           1 PRO       0.0557
    104 H39         5.6423   33.5825   22.5920 H           1 PRO       0.0599
    105 H40         9.5947   32.4725   21.6993 H           1 PRO       0.0599
    106 H41         8.0286   33.9359   22.8473 H           1 PRO       0.0559
    107 H42         6.8356   27.5584   18.5399 H           1 PRO       0.0839
    108 H43         7.1364   28.1349   16.9218 H           1 PRO       0.0839
    109 H44         5.1739   26.8751   17.1711 H           1 PRO       0.2036
    110 H45         5.0022   28.3259   16.4052 H           1 PRO       0.2036
    111 H46         3.8357   29.2224   18.2483 H           1 PRO       0.1099
    112 H47         2.7196   26.5994   17.1808 H           1 PRO       0.0354
    113 H48         2.7369   28.1449   16.3528 H           1 PRO       0.0354
    114 H49         0.6644   28.4689   17.1260 H           1 PRO       0.0380
    115 H50         1.3918   28.8360   18.6975 H           1 PRO       0.0380
    116 H51        -1.9142   26.7835   19.2869 H           1 PRO       0.0340
    117 H52        -1.5512   27.9557   18.0060 H           1 PRO       0.0340
    118 H53        -1.0504   28.2824   19.6829 H           1 PRO       0.0340
    119 H54         4.6309   25.8058   18.8446 H           1 PRO       0.1884
    120 H55         5.2505   24.7275   20.5740 H           1 PRO       0.0797
    121 H56         5.7229   25.7397   22.7694 H           1 PRO       0.0277
    122 H57         4.8862   27.2281   22.2951 H           1 PRO       0.0277
    123 H58         6.3678   26.7266   21.4547 H           1 PRO       0.0277
    124 H59         4.4870   23.5434   22.3330 H           1 PRO       0.1877
    125 H60         1.6332   23.6817   22.9914 H           1 PRO       0.0750
    126 H61         1.6475   21.1512   22.5712 H           1 PRO       0.0484
    127 H62         3.2087   21.3366   21.7657 H           1 PRO       0.0484
    128 H63        -0.4072   22.2637   21.3458 H           1 PRO       0.2386
    129 H64         3.1093   22.4569   19.2643 H           1 PRO       0.0324
    130 H65        -0.9461   22.9591   19.0137 H           1 PRO       0.1149
@<TRIPOS>BOND
     1     1     2   1
     2     1     7   1
     3     2     3   1
     4     2     5   1
     5     3     4   2
     6     3     8  am
     7     5     6   1
     8     6     7   1
     9     8     9   1
    10     9    10   1
    11     9    12   1
    12    10    11   2
    13    10    18  am
    14    12    13   1
    15    13    14   1
    16    13    15   2
    17    14    16   1
    18    15    17   1
    19    16    17   2
    20    18    19   1
    21    19    20   1
    22    19    22   1
    23    20    21   2
    24    20    26  am
    25    22    23   1
    26    23    24   1
    27    23    25   1
    28    26    27   1
    29    27    28   1
    30    27    30   1
    31    28    29   2
    32    28    32  am
    33    30    31   1
    34    32    33   1
    35    33    34   1
    36    33    41   1
    37    34    35   1
    38    35    36  ar
    39    35    37  ar
    40    36    38  ar
    41    37    39  ar
    42    38    40  ar
    43    39    40  ar
    44    41    42   1
    45    42    43   1
    46    43    44   1
    47    43    48   1
    48    44    45   1
    49    45    46   1
    50    46    47   1
    51    48    49   2
    52    48    50  am
    53    50    51   1
    54    51    52   1
    55    51    54   1
    56    52    53   2
    57    52    55  am
    58    55    56   1
    59    56    57   1
    60    56    59   1
    61    57    58  ar
    62    57    65  ar
    63    59    60   1
    64    60    61   1
    65    60    62   2
    66    61    63   1
    67    62    64   1
    68    63    64   2
    69     1    66   1
    70     1    67   1
    71     2    68   1
    72     5    69   1
    73     5    70   1
    74     6    71   1
    75     6    72   1
    76     7    73   1
    77     7    74   1
    78     8    75   1
    79     9    76   1
    80    12    77   1
    81    12    78   1
    82    14    79   1
    83    15    80   1
    84    16    81   1
    85    18    82   1
    86    19    83   1
    87    22    84   1
    88    22    85   1
    89    23    86   1
    90    24    87   1
    91    24    88   1
    92    24    89   1
    93    25    90   1
    94    25    91   1
    95    25    92   1
    96    26    93   1
    97    27    94   1
    98    30    95   1
    99    30    96   1
   100    31    97   1
   101    32    98   1
   102    33    99   1
   103    34   100   1
   104    34   101   1
   105    36   102   1
   106    37   103   1
   107    38   104   1
   108    39   105   1
   109    40   106   1
   110    41   107   1
   111    41   108   1
   112    42   109   1
   113    42   110   1
   114    43   111   1
   115    44   112   1
   116    44   113   1
   117    45   114   1
   118    45   115   1
   119    47   116   1
   120    47   117   1
   121    47   118   1
   122    50   119   1
   123    51   120   1
   124    54   121   1
   125    54   122   1
   126    54   123   1
   127    55   124   1
   128    56   125   1
   129    59   126   1
   130    59   127   1
   131    61   128   1
   132    62   129   1
   133    63   130   1
@<TRIPOS>SUBSTRUCTURE
     1  PRO      2

