@<TRIPOS>MOLECULE
3uri_ligand_042
   130   133
SMALL
GAST_HUCK
****
This file was generated by PARSER (from files_GN.cpp)

@<TRIPOS>ATOM
      1 N          -0.7463   44.0698   14.3289 N.4         1 PRO       0.2461
      2 CA         -0.3413   43.0823   15.3454 C.3         1 PRO       0.0670
      3 C          -0.4309   41.6974   14.9000 C.2         1 PRO       0.2269
      4 O          -1.0482   41.4216   13.8789 O.2         1 PRO      -0.3907
      5 CB         -1.2665   43.4060   16.5354 C.3         1 PRO       0.0127
      6 CG         -1.4076   44.9379   16.4822 C.3         1 PRO      -0.0053
      7 CD         -1.0534   45.3239   15.0309 C.3         1 PRO      -0.0313
      8 N           0.1389   40.7587   15.6477 N.am        1 PRO      -0.2592
      9 CA          0.2122   39.3383   15.4079 C.3         1 PRO       0.1422
     10 C           0.7475   39.0611   14.0696 C.2         1 PRO       0.2060
     11 O          -0.0054   39.1293   13.1038 O.2         1 PRO      -0.3942
     12 CB         -1.1232   38.5873   15.7110 C.3         1 PRO       0.0427
     13 CG         -1.7386   38.9861   16.9960 C.2         1 PRO       0.0561
     14 ND1        -1.1725   38.8985   18.2084 N.pl3       1 PRO      -0.2623
     15 CD2        -2.9884   39.5666   17.1937 C.2         1 PRO      -0.0276
     16 CE1        -2.0220   39.4021   19.1129 C.2         1 PRO       0.0875
     17 NE2        -3.1448   39.8160   18.5026 N.2         1 PRO      -0.3437
     18 N           2.0533   38.8740   13.8915 N.am        1 PRO      -0.2636
     19 CA          2.7403   38.8126   12.6241 C.3         1 PRO       0.1312
     20 C           2.6853   37.4384   12.1206 C.2         1 PRO       0.2040
     21 O           1.8831   37.1483   11.2377 O.2         1 PRO      -0.3944
     22 CB          4.1904   39.3868   12.7836 C.3         1 PRO      -0.0101
     23 CG          4.7819   40.1494   11.5514 C.3         1 PRO      -0.0425
     24 CD1         6.1324   40.8230   11.9225 C.3         1 PRO      -0.0625
     25 CD2         4.9627   39.2538   10.2915 C.3         1 PRO      -0.0625
     26 N           3.4832   36.5095   12.6505 N.am        1 PRO      -0.2616
     27 CA          3.5362   35.1031   12.3260 C.3         1 PRO       0.1538
     28 C           2.6505   34.3358   13.1978 C.2         1 PRO       0.2045
     29 O           2.4124   34.7362   14.3308 O.2         1 PRO      -0.3944
     30 CB          5.0116   34.6239   12.4453 C.3         1 PRO       0.0843
     31 OG          5.1477   33.2008   12.4568 O.3         1 PRO      -0.3903
     32 N           2.0940   33.2066   12.7632 N.am        1 PRO      -0.2748
     33 C1          1.1821   32.3437   13.4736 C.3         1 PRO       0.0911
     34 C2          1.8373   31.9010   14.8269 C.3         1 PRO       0.0089
     35 C3          1.0093   31.0221   15.7016 C.ar        1 PRO      -0.0406
     36 C4          0.7700   31.3628   17.0589 C.ar        1 PRO      -0.0603
     37 C5          0.4855   29.8057   15.2091 C.ar        1 PRO      -0.0603
     38 C6          0.0290   30.5099   17.8949 C.ar        1 PRO      -0.0686
     39 C7         -0.2482   28.9444   16.0493 C.ar        1 PRO      -0.0686
     40 C8         -0.4790   29.2950   17.3930 C.ar        1 PRO      -0.0687
     41 C9         -0.2522   32.9450   13.6327 C.3         1 PRO      -0.0062
     42 N2         -0.5215   34.0868   12.7173 N.4         1 PRO       0.2479
     43 C10        -1.8647   34.7545   12.7015 C.3         1 PRO       0.0676
     44 C11        -2.5743   34.8970   14.0907 C.3         1 PRO       0.0169
     45 C12        -3.9684   35.5871   14.0656 C.3         1 PRO       0.0007
     46 SD         -4.6261   35.8677   15.7324 S.3         1 PRO      -0.1638
     47 C13        -5.8177   34.5079   15.7856 C.3         1 PRO      -0.0181
     48 C          -1.7021   36.0655   12.0773 C.2         1 PRO       0.2268
     49 O          -0.7382   36.7459   12.4137 O.2         1 PRO      -0.3907
     50 N          -2.6708   36.5874   11.3269 N.am        1 PRO      -0.2613
     51 CA         -2.7795   37.9532   10.8747 C.3         1 PRO       0.1283
     52 C          -4.0063   38.5222   11.4220 C.2         1 PRO       0.2032
     53 O          -3.9264   39.5345   12.1102 O.2         1 PRO      -0.3944
     54 CB         -2.7353   38.0341    9.3272 C.3         1 PRO      -0.0244
     55 N          -5.1818   37.9458   11.1956 N.am        1 PRO      -0.2677
     56 CA         -6.4677   38.3933   11.6607 C.3         1 PRO       0.1056
     57 C          -6.5972   38.1618   13.1271 C.2         1 PRO       0.0621
     58 O          -5.5833   38.5086   13.9550 O.co2       1 PRO      -0.5664
     59 CB         -7.5891   37.6895   10.8375 C.3         1 PRO       0.0372
     60 CG         -7.6752   38.1368    9.4307 C.2         1 PRO       0.0555
     61 ND1        -7.8708   37.3489    8.3612 N.pl3       1 PRO      -0.2623
     62 CD2        -7.6139   39.4398    8.9441 C.2         1 PRO      -0.0276
     63 CE1        -7.9253   38.1227    7.2684 C.2         1 PRO       0.0875
     64 NE2        -7.7759   39.4137    7.6126 N.2         1 PRO      -0.3437
     65 OXT        -7.7560   37.7562   13.7057 O.co2       1 PRO      -0.5664
     66 H1         -1.5929   43.7454   13.8561 H           1 PRO       0.2035
     67 H2         -0.0017   44.2144   13.6416 H           1 PRO       0.2035
     68 H3          0.7018   43.2978   15.6158 H           1 PRO       0.1099
     69 H4         -0.8343   43.0655   17.4827 H           1 PRO       0.0347
     70 H5         -2.2474   42.9367   16.3996 H           1 PRO       0.0347
     71 H6         -0.7076   45.4042   17.1821 H           1 PRO       0.0320
     72 H7         -2.4230   45.2395   16.7432 H           1 PRO       0.0320
     73 H8         -1.8870   45.8276   14.5383 H           1 PRO       0.0814
     74 H9         -0.1787   45.9807   15.0113 H           1 PRO       0.0814
     75 H10         0.5562   41.0689   16.4700 H           1 PRO       0.1886
     76 H11         0.9302   38.9727   16.1462 H           1 PRO       0.0824
     77 H12        -0.9239   37.5151   15.7480 H           1 PRO       0.0491
     78 H13        -1.8460   38.7598   14.9042 H           1 PRO       0.0491
     79 H14        -0.2849   38.5522   18.3920 H           1 PRO       0.2386
     80 H15        -3.6714   39.7838   16.4651 H           1 PRO       0.0324
     81 H16        -1.8408   39.4647   20.1156 H           1 PRO       0.1149
     82 H17         2.6121   38.9291   14.6843 H           1 PRO       0.1883
     83 H18         2.2261   39.4730   11.9160 H           1 PRO       0.0800
     84 H19         4.8789   38.5905   13.0876 H           1 PRO       0.0315
     85 H20         4.1595   40.1142   13.6063 H           1 PRO       0.0315
     86 H21         4.0857   40.9484   11.2801 H           1 PRO       0.0298
     87 H22         6.5017   41.4231   11.0854 H           1 PRO       0.0232
     88 H23         6.8855   40.0689   12.1747 H           1 PRO       0.0232
     89 H24         5.9986   41.4889   12.7814 H           1 PRO       0.0232
     90 H25         3.9930   38.9719    9.8776 H           1 PRO       0.0232
     91 H26         5.5139   38.3476   10.5464 H           1 PRO       0.0232
     92 H27         5.5087   39.7891    9.5101 H           1 PRO       0.0232
     93 H28         4.0456   36.7852   13.4000 H           1 PRO       0.1884
     94 H29         3.2161   34.9374   11.2866 H           1 PRO       0.0823
     95 H30         5.4607   35.0095   13.3641 H           1 PRO       0.0606
     96 H31         5.5829   35.0141   11.6006 H           1 PRO       0.0606
     97 H32         4.5734   32.8675   11.7334 H           1 PRO       0.2097
     98 H33         2.3216   32.9213   11.8604 H           1 PRO       0.1859
     99 H34         1.0795   31.4479   12.8539 H           1 PRO       0.0632
    100 H35         2.1213   32.7949   15.3908 H           1 PRO       0.0450
    101 H36         2.7690   31.3648   14.6118 H           1 PRO       0.0450
    102 H37         1.1397   32.2358   17.4488 H           1 PRO       0.0557
    103 H38         0.6477   29.5235   14.2406 H           1 PRO       0.0557
    104 H39        -0.1368   30.7687   18.8719 H           1 PRO       0.0599
    105 H40        -0.6147   28.0629   15.6867 H           1 PRO       0.0599
    106 H41        -1.0109   28.6705   18.0051 H           1 PRO       0.0559
    107 H42        -0.3658   33.2908   14.6628 H           1 PRO       0.0839
    108 H43        -0.9931   32.1612   13.4486 H           1 PRO       0.0839
    109 H44        -0.3205   33.7683   11.7613 H           1 PRO       0.2036
    110 H45         0.1734   34.8071   12.9497 H           1 PRO       0.2036
    111 H46        -2.5101   34.1317   12.0743 H           1 PRO       0.1099
    112 H47        -1.9254   35.4600   14.7638 H           1 PRO       0.0354
    113 H48        -2.6929   33.8932   14.5081 H           1 PRO       0.0354
    114 H49        -4.6711   34.9985   13.4707 H           1 PRO       0.0380
    115 H50        -3.8607   36.5657   13.5988 H           1 PRO       0.0380
    116 H51        -6.2758   34.4802   16.7706 H           1 PRO       0.0340
    117 H52        -5.3295   33.5523   15.5940 H           1 PRO       0.0340
    118 H53        -6.5965   34.6742   15.0414 H           1 PRO       0.0340
    119 H54        -3.4351   36.0141   11.1447 H           1 PRO       0.1884
    120 H55        -1.9198   38.5414   11.2260 H           1 PRO       0.0797
    121 H56        -2.8099   39.0722    8.9982 H           1 PRO       0.0277
    122 H57        -3.5499   37.4675    8.8761 H           1 PRO       0.0277
    123 H58        -1.7857   37.6370    8.9616 H           1 PRO       0.0277
    124 H59        -5.1745   37.1693   10.6117 H           1 PRO       0.1877
    125 H60        -6.5688   39.4691   11.4915 H           1 PRO       0.0750
    126 H61        -8.5596   37.8897   11.2994 H           1 PRO       0.0484
    127 H62        -7.4284   36.6054   10.8551 H           1 PRO       0.0484
    128 H63        -7.9743   36.3845    8.3768 H           1 PRO       0.2386
    129 H64        -7.4887   40.2859    9.5040 H           1 PRO       0.0324
    130 H65        -8.0828   37.7827    6.3185 H           1 PRO       0.1149
@<TRIPOS>BOND
     1     1     2   1
     2     1     7   1
     3     2     3   1
     4     2     5   1
     5     3     4   2
     6     3     8  am
     7     5     6   1
     8     6     7   1
     9     8     9   1
    10     9    10   1
    11     9    12   1
    12    10    11   2
    13    10    18  am
    14    12    13   1
    15    13    14   1
    16    13    15   2
    17    14    16   1
    18    15    17   1
    19    16    17   2
    20    18    19   1
    21    19    20   1
    22    19    22   1
    23    20    21   2
    24    20    26  am
    25    22    23   1
    26    23    24   1
    27    23    25   1
    28    26    27   1
    29    27    28   1
    30    27    30   1
    31    28    29   2
    32    28    32  am
    33    30    31   1
    34    32    33   1
    35    33    34   1
    36    33    41   1
    37    34    35   1
    38    35    36  ar
    39    35    37  ar
    40    36    38  ar
    41    37    39  ar
    42    38    40  ar
    43    39    40  ar
    44    41    42   1
    45    42    43   1
    46    43    44   1
    47    43    48   1
    48    44    45   1
    49    45    46   1
    50    46    47   1
    51    48    49   2
    52    48    50  am
    53    50    51   1
    54    51    52   1
    55    51    54   1
    56    52    53   2
    57    52    55  am
    58    55    56   1
    59    56    57   1
    60    56    59   1
    61    57    58  ar
    62    57    65  ar
    63    59    60   1
    64    60    61   1
    65    60    62   2
    66    61    63   1
    67    62    64   1
    68    63    64   2
    69     1    66   1
    70     1    67   1
    71     2    68   1
    72     5    69   1
    73     5    70   1
    74     6    71   1
    75     6    72   1
    76     7    73   1
    77     7    74   1
    78     8    75   1
    79     9    76   1
    80    12    77   1
    81    12    78   1
    82    14    79   1
    83    15    80   1
    84    16    81   1
    85    18    82   1
    86    19    83   1
    87    22    84   1
    88    22    85   1
    89    23    86   1
    90    24    87   1
    91    24    88   1
    92    24    89   1
    93    25    90   1
    94    25    91   1
    95    25    92   1
    96    26    93   1
    97    27    94   1
    98    30    95   1
    99    30    96   1
   100    31    97   1
   101    32    98   1
   102    33    99   1
   103    34   100   1
   104    34   101   1
   105    36   102   1
   106    37   103   1
   107    38   104   1
   108    39   105   1
   109    40   106   1
   110    41   107   1
   111    41   108   1
   112    42   109   1
   113    42   110   1
   114    43   111   1
   115    44   112   1
   116    44   113   1
   117    45   114   1
   118    45   115   1
   119    47   116   1
   120    47   117   1
   121    47   118   1
   122    50   119   1
   123    51   120   1
   124    54   121   1
   125    54   122   1
   126    54   123   1
   127    55   124   1
   128    56   125   1
   129    59   126   1
   130    59   127   1
   131    61   128   1
   132    62   129   1
   133    63   130   1
@<TRIPOS>SUBSTRUCTURE
     1  PRO      2

