@<TRIPOS>MOLECULE
3uri_ligand_017
   130   133
SMALL
GAST_HUCK
****
This file was generated by PARSER (from files_GN.cpp)

@<TRIPOS>ATOM
      1 N          -9.5030   24.4559   19.0024 N.4         1 PRO       0.2461
      2 CA         -8.1569   24.3960   18.4142 C.3         1 PRO       0.0670
      3 C          -7.4332   25.6550   18.5291 C.2         1 PRO       0.2269
      4 O          -7.7646   26.6064   17.8315 O.2         1 PRO      -0.3907
      5 CB         -8.4253   23.9192   16.9718 C.3         1 PRO       0.0127
      6 CG         -9.5816   22.9158   17.1337 C.3         1 PRO      -0.0053
      7 CD        -10.2791   23.3325   18.4492 C.3         1 PRO      -0.0313
      8 N          -6.4575   25.7701   19.4217 N.am        1 PRO      -0.2592
      9 CA         -5.6529   26.9368   19.6910 C.3         1 PRO       0.1422
     10 C          -4.6552   27.1822   18.6495 C.2         1 PRO       0.2060
     11 O          -4.4514   26.3398   17.7789 O.2         1 PRO      -0.3942
     12 CB         -4.9767   26.7590   21.0873 C.3         1 PRO       0.0427
     13 CG         -5.8724   26.4623   22.2342 C.2         1 PRO       0.0561
     14 ND1        -5.4666   25.8181   23.3354 N.pl3       1 PRO      -0.2623
     15 CD2        -7.2206   26.7517   22.4343 C.2         1 PRO      -0.0276
     16 CE1        -6.5079   25.7116   24.1768 C.2         1 PRO       0.0875
     17 NE2        -7.5925   26.2836   23.6371 N.2         1 PRO      -0.3437
     18 N          -3.9533   28.3123   18.6684 N.am        1 PRO      -0.2636
     19 CA         -2.9453   28.7516   17.7340 C.3         1 PRO       0.1312
     20 C          -1.5822   28.4722   18.1892 C.2         1 PRO       0.2040
     21 O          -1.3078   28.5411   19.3880 O.2         1 PRO      -0.3944
     22 CB         -3.1965   30.2452   17.3460 C.3         1 PRO      -0.0101
     23 CG         -3.3621   31.3029   18.4941 C.3         1 PRO      -0.0425
     24 CD1        -2.0177   31.7428   19.1447 C.3         1 PRO      -0.0625
     25 CD2        -4.1363   32.5475   17.9705 C.3         1 PRO      -0.0625
     26 N          -0.6408   28.1180   17.3112 N.am        1 PRO      -0.2616
     27 CA          0.7335   27.8005   17.6064 C.3         1 PRO       0.1538
     28 C           1.6240   28.4864   16.6641 C.2         1 PRO       0.2045
     29 O           2.3026   27.8516   15.8676 O.2         1 PRO      -0.3944
     30 CB          0.9472   26.2602   17.6930 C.3         1 PRO       0.0843
     31 OG          0.8584   25.6115   16.4225 O.3         1 PRO      -0.3903
     32 N           1.7424   29.8027   16.7335 N.am        1 PRO      -0.2748
     33 C1          2.7383   30.6067   16.0656 C.3         1 PRO       0.0911
     34 C2          2.2877   32.1052   16.1011 C.3         1 PRO       0.0089
     35 C3          1.2441   32.4089   15.0777 C.ar        1 PRO      -0.0406
     36 C4         -0.1242   32.4971   15.4203 C.ar        1 PRO      -0.0603
     37 C5          1.6129   32.5812   13.7144 C.ar        1 PRO      -0.0603
     38 C6         -1.1009   32.7563   14.4393 C.ar        1 PRO      -0.0686
     39 C7          0.6352   32.8412   12.7329 C.ar        1 PRO      -0.0686
     40 C8         -0.7191   32.9284   13.0934 C.ar        1 PRO      -0.0687
     41 C9          4.1612   30.3911   16.6689 C.3         1 PRO      -0.0062
     42 N2          4.1619   30.4051   18.1480 N.4         1 PRO       0.2479
     43 C10         5.4552   30.6479   18.8535 C.3         1 PRO       0.0676
     44 C11         5.2198   30.7696   20.4000 C.3         1 PRO       0.0169
     45 C12         3.9721   30.0301   20.9660 C.3         1 PRO       0.0007
     46 SD          3.8598   30.0168   22.7766 S.3         1 PRO      -0.1638
     47 C13         4.0722   31.7780   23.1219 C.3         1 PRO      -0.0181
     48 C           6.5230   29.6980   18.5688 C.2         1 PRO       0.2268
     49 O           6.2899   28.6295   18.0168 O.2         1 PRO      -0.3907
     50 N           7.7562   30.0027   18.9575 N.am        1 PRO      -0.2613
     51 CA          8.9563   29.2338   18.7722 C.3         1 PRO       0.1283
     52 C           9.1409   28.1263   19.7101 C.2         1 PRO       0.2032
     53 O          10.2884   27.7501   19.9378 O.2         1 PRO      -0.3944
     54 CB         10.1499   30.2301   18.8279 C.3         1 PRO      -0.0244
     55 N           8.1166   27.4912   20.2783 N.am        1 PRO      -0.2677
     56 CA          8.1843   26.3893   21.1948 C.3         1 PRO       0.1056
     57 C           6.8492   25.7850   21.4213 C.2         1 PRO       0.0621
     58 O           6.6625   24.9115   22.4330 O.co2       1 PRO      -0.5664
     59 CB          8.8582   26.8036   22.5396 C.3         1 PRO       0.0372
     60 CG          8.1018   27.8225   23.3032 C.2         1 PRO       0.0555
     61 ND1         7.4169   27.5953   24.4320 N.pl3       1 PRO      -0.2623
     62 CD2         7.9303   29.1742   23.0123 C.2         1 PRO      -0.0276
     63 CE1         6.8339   28.7386   24.8206 C.2         1 PRO       0.0875
     64 NE2         7.1503   29.7213   23.9546 N.2         1 PRO      -0.3437
     65 OXT         5.7782   26.0994   20.6611 O.co2       1 PRO      -0.5664
     66 H1         -9.9539   25.3320   18.7307 H           1 PRO       0.2035
     67 H2         -9.4555   24.3960   20.0216 H           1 PRO       0.2035
     68 H3         -7.6053   23.6031   18.9295 H           1 PRO       0.1099
     69 H4         -7.5414   23.4480   16.5322 H           1 PRO       0.0347
     70 H5         -8.7469   24.7497   16.3334 H           1 PRO       0.0347
     71 H6         -9.1916   21.8981   17.2210 H           1 PRO       0.0320
     72 H7        -10.2668   22.9604   16.2850 H           1 PRO       0.0320
     73 H8        -11.3081   23.6527   18.2671 H           1 PRO       0.0814
     74 H9        -10.2869   22.5047   19.1621 H           1 PRO       0.0814
     75 H10        -6.2861   24.9953   19.9792 H           1 PRO       0.1886
     76 H11        -6.3034   27.8152   19.7515 H           1 PRO       0.0824
     77 H12        -4.4321   27.6727   21.3481 H           1 PRO       0.0491
     78 H13        -4.2433   25.9489   21.0240 H           1 PRO       0.0491
     79 H14        -4.5722   25.4830   23.4984 H           1 PRO       0.2386
     80 H15        -7.8414   27.2425   21.7902 H           1 PRO       0.0324
     81 H16        -6.4737   25.2696   25.0964 H           1 PRO       0.1149
     82 H17        -4.1152   28.8919   19.4241 H           1 PRO       0.1883
     83 H18        -3.0654   28.1841   16.8030 H           1 PRO       0.0800
     84 H19        -4.1177   30.2463   16.7588 H           1 PRO       0.0315
     85 H20        -2.4001   30.5735   16.6762 H           1 PRO       0.0315
     86 H21        -3.9810   30.8674   19.2888 H           1 PRO       0.0298
     87 H22        -2.1849   32.5690   19.8422 H           1 PRO       0.0232
     88 H23        -1.3019   32.0677   18.3859 H           1 PRO       0.0232
     89 H24        -1.5798   30.9208   19.7127 H           1 PRO       0.0232
     90 H25        -5.1106   32.2502   17.5692 H           1 PRO       0.0232
     91 H26        -3.5704   33.0445   17.1832 H           1 PRO       0.0232
     92 H27        -4.3126   33.2597   18.7814 H           1 PRO       0.0232
     93 H28        -0.9082   28.0794   16.3768 H           1 PRO       0.1884
     94 H29         0.9817   28.2035   18.5979 H           1 PRO       0.0823
     95 H30         0.2029   25.8107   18.3573 H           1 PRO       0.0606
     96 H31         1.9348   26.0517   18.1124 H           1 PRO       0.0606
     97 H32        -0.1000   25.5495   16.2450 H           1 PRO       0.2097
     98 H33         1.1542   30.2617   17.3532 H           1 PRO       0.1859
     99 H34         2.7849   30.2964   15.0175 H           1 PRO       0.0632
    100 H35         3.1411   32.7600   15.9090 H           1 PRO       0.0450
    101 H36         1.9323   32.3579   17.1057 H           1 PRO       0.0450
    102 H37        -0.4168   32.3750   16.3875 H           1 PRO       0.0557
    103 H38         2.5969   32.5189   13.4338 H           1 PRO       0.0557
    104 H39        -2.0861   32.8217   14.6956 H           1 PRO       0.0599
    105 H40         0.9144   32.9584   11.7561 H           1 PRO       0.0599
    106 H41        -1.4267   33.1137   12.3831 H           1 PRO       0.0559
    107 H42         4.8457   31.1481   16.2747 H           1 PRO       0.0839
    108 H43         4.5265   29.4203   16.3325 H           1 PRO       0.0839
    109 H44         3.7846   29.5110   18.4652 H           1 PRO       0.2036
    110 H45         3.5154   31.1313   18.4464 H           1 PRO       0.2036
    111 H46         5.7982   31.6310   18.5148 H           1 PRO       0.1099
    112 H47         5.1298   31.8334   20.6578 H           1 PRO       0.0354
    113 H48         6.1033   30.4103   20.9493 H           1 PRO       0.0354
    114 H49         4.0020   28.9908   20.6388 H           1 PRO       0.0380
    115 H50         3.0650   30.4850   20.5704 H           1 PRO       0.0380
    116 H51         3.8706   31.9540   24.1796 H           1 PRO       0.0340
    117 H52         3.3807   32.3732   22.5266 H           1 PRO       0.0340
    118 H53         5.0960   32.0843   22.9129 H           1 PRO       0.0340
    119 H54         7.8658   30.8677   19.3872 H           1 PRO       0.1884
    120 H55         8.9417   28.8176   17.7641 H           1 PRO       0.0797
    121 H56        11.0876   29.7304   18.5646 H           1 PRO       0.0277
    122 H57        10.2463   30.6558   19.8302 H           1 PRO       0.0277
    123 H58         9.9973   31.0496   18.1209 H           1 PRO       0.0277
    124 H59         7.2283   27.8071   20.0536 H           1 PRO       0.1877
    125 H60         8.7888   25.5951   20.7429 H           1 PRO       0.0750
    126 H61         9.8597   27.1909   22.3494 H           1 PRO       0.0484
    127 H62         8.9760   25.9083   23.1601 H           1 PRO       0.0484
    128 H63         7.3345   26.7375   24.8869 H           1 PRO       0.2386
    129 H64         8.3284   29.6754   22.2164 H           1 PRO       0.0324
    130 H65         6.2449   28.8479   25.6458 H           1 PRO       0.1149
@<TRIPOS>BOND
     1     1     2   1
     2     1     7   1
     3     2     3   1
     4     2     5   1
     5     3     4   2
     6     3     8  am
     7     5     6   1
     8     6     7   1
     9     8     9   1
    10     9    10   1
    11     9    12   1
    12    10    11   2
    13    10    18  am
    14    12    13   1
    15    13    14   1
    16    13    15   2
    17    14    16   1
    18    15    17   1
    19    16    17   2
    20    18    19   1
    21    19    20   1
    22    19    22   1
    23    20    21   2
    24    20    26  am
    25    22    23   1
    26    23    24   1
    27    23    25   1
    28    26    27   1
    29    27    28   1
    30    27    30   1
    31    28    29   2
    32    28    32  am
    33    30    31   1
    34    32    33   1
    35    33    34   1
    36    33    41   1
    37    34    35   1
    38    35    36  ar
    39    35    37  ar
    40    36    38  ar
    41    37    39  ar
    42    38    40  ar
    43    39    40  ar
    44    41    42   1
    45    42    43   1
    46    43    44   1
    47    43    48   1
    48    44    45   1
    49    45    46   1
    50    46    47   1
    51    48    49   2
    52    48    50  am
    53    50    51   1
    54    51    52   1
    55    51    54   1
    56    52    53   2
    57    52    55  am
    58    55    56   1
    59    56    57   1
    60    56    59   1
    61    57    58  ar
    62    57    65  ar
    63    59    60   1
    64    60    61   1
    65    60    62   2
    66    61    63   1
    67    62    64   1
    68    63    64   2
    69     1    66   1
    70     1    67   1
    71     2    68   1
    72     5    69   1
    73     5    70   1
    74     6    71   1
    75     6    72   1
    76     7    73   1
    77     7    74   1
    78     8    75   1
    79     9    76   1
    80    12    77   1
    81    12    78   1
    82    14    79   1
    83    15    80   1
    84    16    81   1
    85    18    82   1
    86    19    83   1
    87    22    84   1
    88    22    85   1
    89    23    86   1
    90    24    87   1
    91    24    88   1
    92    24    89   1
    93    25    90   1
    94    25    91   1
    95    25    92   1
    96    26    93   1
    97    27    94   1
    98    30    95   1
    99    30    96   1
   100    31    97   1
   101    32    98   1
   102    33    99   1
   103    34   100   1
   104    34   101   1
   105    36   102   1
   106    37   103   1
   107    38   104   1
   108    39   105   1
   109    40   106   1
   110    41   107   1
   111    41   108   1
   112    42   109   1
   113    42   110   1
   114    43   111   1
   115    44   112   1
   116    44   113   1
   117    45   114   1
   118    45   115   1
   119    47   116   1
   120    47   117   1
   121    47   118   1
   122    50   119   1
   123    51   120   1
   124    54   121   1
   125    54   122   1
   126    54   123   1
   127    55   124   1
   128    56   125   1
   129    59   126   1
   130    59   127   1
   131    61   128   1
   132    62   129   1
   133    63   130   1
@<TRIPOS>SUBSTRUCTURE
     1  PRO      2

