@<TRIPOS>MOLECULE
3uri_ligand_033
   130   133
SMALL
GAST_HUCK
****
This file was generated by PARSER (from files_GN.cpp)

@<TRIPOS>ATOM
      1 N           8.1132   30.9145   16.4639 N.4         1 PRO       0.2461
      2 CA          7.4945   31.2461   17.7635 C.3         1 PRO       0.0670
      3 C           6.5685   30.2238   18.2368 C.2         1 PRO       0.2269
      4 O           6.7118   29.7839   19.3678 O.2         1 PRO      -0.3907
      5 CB          6.8433   32.6247   17.5253 C.3         1 PRO       0.0127
      6 CG          7.8385   33.3229   16.5856 C.3         1 PRO      -0.0053
      7 CD          8.4668   32.1712   15.7807 C.3         1 PRO      -0.0313
      8 N           5.5871   29.8100   17.4429 N.am        1 PRO      -0.2592
      9 CA          4.5139   28.8716   17.6564 C.3         1 PRO       0.1422
     10 C           3.4032   29.3848   16.8598 C.2         1 PRO       0.2060
     11 O           2.9984   28.7025   15.9243 O.2         1 PRO      -0.3942
     12 CB          4.0432   28.5672   19.1195 C.3         1 PRO       0.0427
     13 CG          4.6019   27.3595   19.7714 C.2         1 PRO       0.0561
     14 ND1         4.0731   26.8073   20.8723 N.pl3       1 PRO      -0.2623
     15 CD2         5.6698   26.5403   19.4073 C.2         1 PRO      -0.0276
     16 CE1         4.7587   25.6948   21.1661 C.2         1 PRO       0.0875
     17 NE2         5.7518   25.5246   20.2789 N.2         1 PRO      -0.3437
     18 N           2.8823   30.5772   17.1329 N.am        1 PRO      -0.2636
     19 CA          1.9314   31.3035   16.3402 C.3         1 PRO       0.1312
     20 C           2.5887   32.5449   15.9503 C.2         1 PRO       0.2040
     21 O           2.6852   33.4752   16.7484 O.2         1 PRO      -0.3944
     22 CB          0.6042   31.5377   17.1274 C.3         1 PRO      -0.0101
     23 CG         -0.2805   30.2640   17.3469 C.3         1 PRO      -0.0425
     24 CD1        -1.3996   30.5606   18.3833 C.3         1 PRO      -0.0625
     25 CD2        -0.8977   29.7219   16.0273 C.3         1 PRO      -0.0625
     26 N           3.2172   32.5875   14.7863 N.am        1 PRO      -0.2616
     27 CA          3.9946   33.6807   14.2856 C.3         1 PRO       0.1538
     28 C           3.1364   34.8167   13.9494 C.2         1 PRO       0.2045
     29 O           3.4306   35.9208   14.3848 O.2         1 PRO      -0.3944
     30 CB          4.9039   33.2237   13.0952 C.3         1 PRO       0.0843
     31 OG          4.6283   33.8657   11.8438 O.3         1 PRO      -0.3903
     32 N           2.0236   34.6399   13.2341 N.am        1 PRO      -0.2748
     33 C1          1.1350   35.6635   12.7394 C.3         1 PRO       0.0911
     34 C2          1.8500   36.5332   11.6444 C.3         1 PRO       0.0089
     35 C3          2.6892   37.6369   12.1977 C.ar        1 PRO      -0.0406
     36 C4          4.1013   37.5453   12.2698 C.ar        1 PRO      -0.0603
     37 C5          2.0644   38.8101   12.6775 C.ar        1 PRO      -0.0603
     38 C6          4.8628   38.5982   12.8129 C.ar        1 PRO      -0.0686
     39 C7          2.8264   39.8641   13.2172 C.ar        1 PRO      -0.0686
     40 C8          4.2260   39.7559   13.2885 C.ar        1 PRO      -0.0687
     41 C9         -0.1751   35.0198   12.1798 C.3         1 PRO      -0.0062
     42 N2         -1.0559   34.4211   13.2227 N.4         1 PRO       0.2479
     43 C10        -2.3664   35.0572   13.5934 C.3         1 PRO       0.0676
     44 C11        -2.2045   36.2096   14.6517 C.3         1 PRO       0.0169
     45 C12        -1.8072   37.6196   14.1120 C.3         1 PRO       0.0007
     46 SD         -0.5671   38.4794   15.1208 S.3         1 PRO      -0.1638
     47 C13        -1.3724   38.3493   16.7353 C.3         1 PRO      -0.0181
     48 C          -3.2418   35.3271   12.4467 C.2         1 PRO       0.2268
     49 O          -3.1633   34.5631   11.4885 O.2         1 PRO      -0.3907
     50 N          -4.1623   36.2950   12.4565 N.am        1 PRO      -0.2613
     51 CA         -4.9846   36.6910   11.3400 C.3         1 PRO       0.1283
     52 C          -4.2228   37.4086   10.3233 C.2         1 PRO       0.2032
     53 O          -4.5293   37.2714    9.1452 O.2         1 PRO      -0.3944
     54 CB         -6.1757   37.5588   11.8192 C.3         1 PRO      -0.0244
     55 N          -3.1911   38.1651   10.6819 N.am        1 PRO      -0.2677
     56 CA         -2.2681   38.8301    9.8096 C.3         1 PRO       0.1056
     57 C          -1.0846   39.2010   10.6263 C.2         1 PRO       0.0621
     58 O          -1.2387   39.7520   11.8555 O.co2       1 PRO      -0.5664
     59 CB         -2.9035   40.0772    9.1224 C.3         1 PRO       0.0372
     60 CG         -2.0070   40.6739    8.1077 C.2         1 PRO       0.0555
     61 ND1        -1.9219   40.3151    6.8174 N.pl3       1 PRO      -0.2623
     62 CD2        -1.0284   41.6429    8.3093 C.2         1 PRO      -0.0276
     63 CE1        -0.9408   41.0289    6.2442 C.2         1 PRO       0.0875
     64 NE2        -0.3805   41.8456    7.1525 N.2         1 PRO      -0.3437
     65 OXT         0.1580   39.1751   10.0883 O.co2       1 PRO      -0.5664
     66 H1          7.4473   30.4035   15.8750 H           1 PRO       0.2035
     67 H2          8.9533   30.3409   16.5904 H           1 PRO       0.2035
     68 H3          8.3083   31.3725   18.4858 H           1 PRO       0.1099
     69 H4          6.7093   33.1788   18.4601 H           1 PRO       0.0347
     70 H5          5.8722   32.5276   17.0270 H           1 PRO       0.0347
     71 H6          8.6044   33.8353   17.1738 H           1 PRO       0.0320
     72 H7          7.3390   34.0520   15.9427 H           1 PRO       0.0320
     73 H8          8.0675   32.1466   14.7653 H           1 PRO       0.0814
     74 H9          9.5502   32.2782   15.7368 H           1 PRO       0.0814
     75 H10         5.6149   30.1795   16.5439 H           1 PRO       0.1886
     76 H11         4.8574   27.9323   17.2124 H           1 PRO       0.0824
     77 H12         2.9606   28.4091   19.1099 H           1 PRO       0.0491
     78 H13         4.2353   29.4346   19.7569 H           1 PRO       0.0491
     79 H14         3.2983   27.1367   21.3506 H           1 PRO       0.2386
     80 H15         6.2913   26.6689   18.6067 H           1 PRO       0.0324
     81 H16         4.5535   25.0632   21.9419 H           1 PRO       0.1149
     82 H17         3.2156   31.0453   17.9147 H           1 PRO       0.1883
     83 H18         1.6654   30.7653   15.4233 H           1 PRO       0.0800
     84 H19         0.0084   32.2994   16.6054 H           1 PRO       0.0315
     85 H20         0.8665   31.9539   18.1045 H           1 PRO       0.0315
     86 H21         0.3448   29.4762   17.7686 H           1 PRO       0.0298
     87 H22        -2.0005   29.6683   18.5653 H           1 PRO       0.0232
     88 H23        -2.0528   31.3574   18.0236 H           1 PRO       0.0232
     89 H24        -0.9626   30.8695   19.3340 H           1 PRO       0.0232
     90 H25        -0.1198   29.3779   15.3460 H           1 PRO       0.0232
     91 H26        -1.4828   30.4971   15.5279 H           1 PRO       0.0232
     92 H27        -1.5512   28.8716   16.2305 H           1 PRO       0.0232
     93 H28         3.1730   31.7928   14.2266 H           1 PRO       0.1884
     94 H29         4.6922   33.9725   15.0785 H           1 PRO       0.0823
     95 H30         4.8358   32.1365   12.9337 H           1 PRO       0.0606
     96 H31         5.9577   33.4405   13.3268 H           1 PRO       0.0606
     97 H32         3.9762   33.2852   11.3977 H           1 PRO       0.2097
     98 H33         1.8102   33.7274   12.9692 H           1 PRO       0.1859
     99 H34         0.8286   36.2867   13.5830 H           1 PRO       0.0632
    100 H35         1.1193   36.9952   10.9740 H           1 PRO       0.0450
    101 H36         2.4595   35.8774   11.0097 H           1 PRO       0.0450
    102 H37         4.5830   36.7060   11.9436 H           1 PRO       0.0557
    103 H38         1.0487   38.9099   12.6335 H           1 PRO       0.0557
    104 H39         5.8787   38.5144   12.8798 H           1 PRO       0.0599
    105 H40         2.3579   40.7060   13.5654 H           1 PRO       0.0599
    106 H41         4.7783   40.5265   13.6761 H           1 PRO       0.0559
    107 H42         0.0952   34.2192   11.4912 H           1 PRO       0.0839
    108 H43        -0.7397   35.7509   11.5955 H           1 PRO       0.0839
    109 H44        -0.5132   34.2870   14.0771 H           1 PRO       0.2036
    110 H45        -1.2969   33.4842   12.8888 H           1 PRO       0.2036
    111 H46        -2.8930   34.2598   14.1312 H           1 PRO       0.1099
    112 H47        -1.4746   35.8972   15.4030 H           1 PRO       0.0354
    113 H48        -3.1563   36.3203   15.1854 H           1 PRO       0.0354
    114 H49        -2.6912   38.2620   14.0378 H           1 PRO       0.0380
    115 H50        -1.3891   37.5350   13.1094 H           1 PRO       0.0380
    116 H51        -0.7869   38.9197   17.4633 H           1 PRO       0.0340
    117 H52        -1.4225   37.2924   17.0343 H           1 PRO       0.0340
    118 H53        -2.3825   38.7739   16.7044 H           1 PRO       0.0340
    119 H54        -4.2509   36.8151   13.2766 H           1 PRO       0.1884
    120 H55        -5.4158   35.7770   10.9140 H           1 PRO       0.0797
    121 H56        -6.8145   37.8192   10.9704 H           1 PRO       0.0277
    122 H57        -5.8212   38.4797   12.2871 H           1 PRO       0.0277
    123 H58        -6.7845   37.0141   12.5444 H           1 PRO       0.0277
    124 H59        -2.9977   38.2123   11.6297 H           1 PRO       0.1877
    125 H60        -1.9367   38.1281    9.0346 H           1 PRO       0.0750
    126 H61        -3.1506   40.8323    9.8732 H           1 PRO       0.0484
    127 H62        -3.8353   39.7874    8.6301 H           1 PRO       0.0484
    128 H63        -2.4669   39.6431    6.3724 H           1 PRO       0.2386
    129 H64        -0.8167   42.1016    9.1935 H           1 PRO       0.0324
    130 H65        -0.6597   40.9632    5.2658 H           1 PRO       0.1149
@<TRIPOS>BOND
     1     1     2   1
     2     1     7   1
     3     2     3   1
     4     2     5   1
     5     3     4   2
     6     3     8  am
     7     5     6   1
     8     6     7   1
     9     8     9   1
    10     9    10   1
    11     9    12   1
    12    10    11   2
    13    10    18  am
    14    12    13   1
    15    13    14   1
    16    13    15   2
    17    14    16   1
    18    15    17   1
    19    16    17   2
    20    18    19   1
    21    19    20   1
    22    19    22   1
    23    20    21   2
    24    20    26  am
    25    22    23   1
    26    23    24   1
    27    23    25   1
    28    26    27   1
    29    27    28   1
    30    27    30   1
    31    28    29   2
    32    28    32  am
    33    30    31   1
    34    32    33   1
    35    33    34   1
    36    33    41   1
    37    34    35   1
    38    35    36  ar
    39    35    37  ar
    40    36    38  ar
    41    37    39  ar
    42    38    40  ar
    43    39    40  ar
    44    41    42   1
    45    42    43   1
    46    43    44   1
    47    43    48   1
    48    44    45   1
    49    45    46   1
    50    46    47   1
    51    48    49   2
    52    48    50  am
    53    50    51   1
    54    51    52   1
    55    51    54   1
    56    52    53   2
    57    52    55  am
    58    55    56   1
    59    56    57   1
    60    56    59   1
    61    57    58  ar
    62    57    65  ar
    63    59    60   1
    64    60    61   1
    65    60    62   2
    66    61    63   1
    67    62    64   1
    68    63    64   2
    69     1    66   1
    70     1    67   1
    71     2    68   1
    72     5    69   1
    73     5    70   1
    74     6    71   1
    75     6    72   1
    76     7    73   1
    77     7    74   1
    78     8    75   1
    79     9    76   1
    80    12    77   1
    81    12    78   1
    82    14    79   1
    83    15    80   1
    84    16    81   1
    85    18    82   1
    86    19    83   1
    87    22    84   1
    88    22    85   1
    89    23    86   1
    90    24    87   1
    91    24    88   1
    92    24    89   1
    93    25    90   1
    94    25    91   1
    95    25    92   1
    96    26    93   1
    97    27    94   1
    98    30    95   1
    99    30    96   1
   100    31    97   1
   101    32    98   1
   102    33    99   1
   103    34   100   1
   104    34   101   1
   105    36   102   1
   106    37   103   1
   107    38   104   1
   108    39   105   1
   109    40   106   1
   110    41   107   1
   111    41   108   1
   112    42   109   1
   113    42   110   1
   114    43   111   1
   115    44   112   1
   116    44   113   1
   117    45   114   1
   118    45   115   1
   119    47   116   1
   120    47   117   1
   121    47   118   1
   122    50   119   1
   123    51   120   1
   124    54   121   1
   125    54   122   1
   126    54   123   1
   127    55   124   1
   128    56   125   1
   129    59   126   1
   130    59   127   1
   131    61   128   1
   132    62   129   1
   133    63   130   1
@<TRIPOS>SUBSTRUCTURE
     1  PRO      2

