@<TRIPOS>MOLECULE
3uri_ligand_039
   130   133
SMALL
GAST_HUCK
****
This file was generated by PARSER (from files_GN.cpp)

@<TRIPOS>ATOM
      1 N           8.4599   28.8298   18.1579 N.4         1 PRO       0.2461
      2 CA          7.4541   27.7598   17.9848 C.3         1 PRO       0.0670
      3 C           6.1861   28.2661   17.4638 C.2         1 PRO       0.2269
      4 O           5.8038   27.8973   16.3600 O.2         1 PRO      -0.3907
      5 CB          7.3314   27.0932   19.3761 C.3         1 PRO       0.0127
      6 CG          8.7415   27.2339   19.9743 C.3         1 PRO      -0.0053
      7 CD          9.3010   28.5136   19.3248 C.3         1 PRO      -0.0313
      8 N           5.4922   29.1357   18.1889 N.am        1 PRO      -0.2592
      9 CA          4.2376   29.7580   17.8503 C.3         1 PRO       0.1422
     10 C           4.4263   31.0988   17.3000 C.2         1 PRO       0.2060
     11 O           3.4290   31.7365   16.9772 O.2         1 PRO      -0.3942
     12 CB          3.2994   29.6748   19.0948 C.3         1 PRO       0.0427
     13 CG          3.8826   29.9709   20.4191 C.2         1 PRO       0.0561
     14 ND1         3.4564   29.3935   21.5519 N.pl3       1 PRO      -0.2623
     15 CD2         4.9131   30.8323   20.8010 C.2         1 PRO      -0.0276
     16 CE1         4.1856   29.8589   22.5797 C.2         1 PRO       0.0875
     17 NE2         5.0869   30.7494   22.1311 N.2         1 PRO      -0.3437
     18 N           5.6352   31.5445   16.9581 N.am        1 PRO      -0.2636
     19 CA          5.9499   32.7497   16.2389 C.3         1 PRO       0.1312
     20 C           5.2129   32.8668   14.9757 C.2         1 PRO       0.2040
     21 O           4.5859   31.9208   14.5151 O.2         1 PRO      -0.3944
     22 CB          7.4957   32.8051   15.9893 C.3         1 PRO      -0.0101
     23 CG          8.3970   33.3101   17.1661 C.3         1 PRO      -0.0425
     24 CD1         8.1037   34.7821   17.5651 C.3         1 PRO      -0.0625
     25 CD2         8.4046   32.3878   18.4144 C.3         1 PRO      -0.0625
     26 N           5.1962   34.0461   14.3455 N.am        1 PRO      -0.2616
     27 CA          4.4525   34.4201   13.1643 C.3         1 PRO       0.1538
     28 C           3.0161   34.3187   13.4134 C.2         1 PRO       0.2045
     29 O           2.5639   35.1520   14.1881 O.2         1 PRO      -0.3944
     30 CB          4.9992   33.7697   11.8603 C.3         1 PRO       0.0843
     31 OG          5.4436   32.4308   12.0452 O.3         1 PRO      -0.3903
     32 N           2.2329   33.3936   12.8640 N.am        1 PRO      -0.2748
     33 C1          0.7996   33.3403   13.0180 C.3         1 PRO       0.0911
     34 C2          0.1486   34.0018   11.7612 C.3         1 PRO       0.0089
     35 C3         -1.1092   34.7351   12.0625 C.ar        1 PRO      -0.0406
     36 C4         -2.3601   34.2935   11.5709 C.ar        1 PRO      -0.0603
     37 C5         -1.0692   35.9243   12.8333 C.ar        1 PRO      -0.0603
     38 C6         -3.5391   35.0121   11.8519 C.ar        1 PRO      -0.0686
     39 C7         -2.2460   36.6459   13.1134 C.ar        1 PRO      -0.0686
     40 C8         -3.4840   36.1875   12.6228 C.ar        1 PRO      -0.0687
     41 C9          0.3033   31.8900   13.2623 C.3         1 PRO      -0.0062
     42 N2          0.9296   31.2548   14.4533 N.4         1 PRO       0.2479
     43 C10         0.0626   30.3817   15.2934 C.3         1 PRO       0.0676
     44 C11         0.8918   29.2750   16.0113 C.3         1 PRO       0.0169
     45 C12         0.0534   28.0085   16.3649 C.3         1 PRO       0.0007
     46 SD          0.4946   27.2603   17.9647 S.3         1 PRO      -0.1638
     47 C13         1.1163   25.6675   17.3895 C.3         1 PRO      -0.0181
     48 C          -0.6444   31.2066   16.2716 C.2         1 PRO       0.2268
     49 O           0.0132   31.9585   16.9859 O.2         1 PRO      -0.3907
     50 N          -1.9610   31.1125   16.4180 N.am        1 PRO      -0.2613
     51 CA         -2.7861   31.7822   17.3833 C.3         1 PRO       0.1283
     52 C          -3.6214   30.8039   18.0792 C.2         1 PRO       0.2032
     53 O          -3.5231   30.7009   19.2955 O.2         1 PRO      -0.3944
     54 CB         -3.6363   32.8679   16.6706 C.3         1 PRO      -0.0244
     55 N          -4.4774   30.0424   17.4004 N.am        1 PRO      -0.2677
     56 CA         -5.3950   29.0740   17.9315 C.3         1 PRO       0.1056
     57 C          -4.6835   28.0572   18.7348 C.2         1 PRO       0.0621
     58 O          -3.9691   27.0658   18.1541 O.co2       1 PRO      -0.5664
     59 CB         -6.1958   28.4623   16.7452 C.3         1 PRO       0.0372
     60 CG         -7.0589   27.3120   17.0813 C.2         1 PRO       0.0555
     61 ND1        -6.9053   26.0617   16.6189 N.pl3       1 PRO      -0.2623
     62 CD2        -8.1806   27.2763   17.9117 C.2         1 PRO      -0.0276
     63 CE1        -7.8722   25.2852   17.1336 C.2         1 PRO       0.0875
     64 NE2        -8.6661   26.0244   17.9339 N.2         1 PRO      -0.3437
     65 OXT        -4.7093   28.1082   20.0888 O.co2       1 PRO      -0.5664
     66 H1          7.9715   29.7034   18.3409 H           1 PRO       0.2035
     67 H2          9.0364   28.9326   17.3186 H           1 PRO       0.2035
     68 H3          7.8726   27.0254   17.2868 H           1 PRO       0.1099
     69 H4          7.0281   26.0408   19.2987 H           1 PRO       0.0347
     70 H5          6.6163   27.6189   20.0202 H           1 PRO       0.0347
     71 H6          9.3545   26.3699   19.7024 H           1 PRO       0.0320
     72 H7          8.7092   27.3143   21.0651 H           1 PRO       0.0320
     73 H8          9.2470   29.3490   20.0250 H           1 PRO       0.0814
     74 H9         10.3388   28.3766   19.0152 H           1 PRO       0.0814
     75 H10         5.9009   29.4238   19.0193 H           1 PRO       0.1886
     76 H11         3.7317   29.1813   17.0613 H           1 PRO       0.0824
     77 H12         2.9200   28.6522   19.1435 H           1 PRO       0.0491
     78 H13         2.4316   30.3205   18.9532 H           1 PRO       0.0491
     79 H14         2.7447   28.7305   21.6190 H           1 PRO       0.2386
     80 H15         5.4594   31.4318   20.1836 H           1 PRO       0.0324
     81 H16         4.0685   29.5728   23.5580 H           1 PRO       0.1149
     82 H17         6.3818   30.9780   17.1946 H           1 PRO       0.1883
     83 H18         5.6546   33.5994   16.8624 H           1 PRO       0.0800
     84 H19         7.7196   33.4613   15.1408 H           1 PRO       0.0315
     85 H20         7.8420   31.8123   15.6836 H           1 PRO       0.0315
     86 H21         9.4232   33.2875   16.7796 H           1 PRO       0.0298
     87 H22         8.9138   35.1577   18.1918 H           1 PRO       0.0232
     88 H23         7.1669   34.8505   18.1183 H           1 PRO       0.0232
     89 H24         8.0433   35.4058   16.6735 H           1 PRO       0.0232
     90 H25         8.7152   31.3795   18.1312 H           1 PRO       0.0232
     91 H26         7.4162   32.3477   18.8779 H           1 PRO       0.0232
     92 H27         9.1212   32.7712   19.1479 H           1 PRO       0.0232
     93 H28         5.6976   34.7701   14.7621 H           1 PRO       0.1884
     94 H29         4.6516   35.4950   13.0244 H           1 PRO       0.0823
     95 H30         5.8493   34.3614   11.5099 H           1 PRO       0.0606
     96 H31         4.2348   33.7853   11.0808 H           1 PRO       0.0606
     97 H32         6.2122   32.3568   11.4221 H           1 PRO       0.2097
     98 H33         2.6369   32.7872   12.2303 H           1 PRO       0.1859
     99 H34         0.4984   33.9043   13.9084 H           1 PRO       0.0632
    100 H35        -0.0184   33.2419   10.9963 H           1 PRO       0.0450
    101 H36         0.8360   34.7258   11.3199 H           1 PRO       0.0450
    102 H37        -2.4314   33.4455   11.0052 H           1 PRO       0.0557
    103 H38        -0.1785   36.2796   13.1878 H           1 PRO       0.0557
    104 H39        -4.4445   34.6889   11.4939 H           1 PRO       0.0599
    105 H40        -2.1976   37.5051   13.6695 H           1 PRO       0.0599
    106 H41        -4.3385   36.7145   12.8302 H           1 PRO       0.0559
    107 H42         0.5189   31.2722   12.3885 H           1 PRO       0.0839
    108 H43        -0.7854   31.9327   13.3802 H           1 PRO       0.0839
    109 H44         1.3115   31.9921   15.0524 H           1 PRO       0.2036
    110 H45         1.7189   30.6977   14.1229 H           1 PRO       0.2036
    111 H46        -0.6498   29.8638   14.6382 H           1 PRO       0.1099
    112 H47         1.3346   29.6846   16.9244 H           1 PRO       0.0354
    113 H48         1.7105   28.9535   15.3626 H           1 PRO       0.0354
    114 H49         0.1480   27.2718   15.5585 H           1 PRO       0.0380
    115 H50        -1.0141   28.2545   16.4398 H           1 PRO       0.0380
    116 H51         1.4644   25.0944   18.2487 H           1 PRO       0.0340
    117 H52         1.9428   25.8107   16.6938 H           1 PRO       0.0340
    118 H53         0.3130   25.1162   16.8997 H           1 PRO       0.0340
    119 H54        -2.4216   30.4914   15.8259 H           1 PRO       0.1884
    120 H55        -2.1723   32.3145   18.1201 H           1 PRO       0.0797
    121 H56        -4.2661   33.3944   17.3933 H           1 PRO       0.0277
    122 H57        -4.2808   32.4218   15.9063 H           1 PRO       0.0277
    123 H58        -2.9841   33.5990   16.1864 H           1 PRO       0.0277
    124 H59        -4.4993   30.1824   16.4417 H           1 PRO       0.1877
    125 H60        -6.1012   29.5856   18.5778 H           1 PRO       0.0750
    126 H61        -5.4979   28.1378   15.9660 H           1 PRO       0.0484
    127 H62        -6.8238   29.2398   16.3083 H           1 PRO       0.0484
    128 H63        -6.2012   25.7552   16.0161 H           1 PRO       0.2386
    129 H64        -8.5730   28.0666   18.4179 H           1 PRO       0.0324
    130 H65        -7.9793   24.2828   16.9515 H           1 PRO       0.1149
@<TRIPOS>BOND
     1     1     2   1
     2     1     7   1
     3     2     3   1
     4     2     5   1
     5     3     4   2
     6     3     8  am
     7     5     6   1
     8     6     7   1
     9     8     9   1
    10     9    10   1
    11     9    12   1
    12    10    11   2
    13    10    18  am
    14    12    13   1
    15    13    14   1
    16    13    15   2
    17    14    16   1
    18    15    17   1
    19    16    17   2
    20    18    19   1
    21    19    20   1
    22    19    22   1
    23    20    21   2
    24    20    26  am
    25    22    23   1
    26    23    24   1
    27    23    25   1
    28    26    27   1
    29    27    28   1
    30    27    30   1
    31    28    29   2
    32    28    32  am
    33    30    31   1
    34    32    33   1
    35    33    34   1
    36    33    41   1
    37    34    35   1
    38    35    36  ar
    39    35    37  ar
    40    36    38  ar
    41    37    39  ar
    42    38    40  ar
    43    39    40  ar
    44    41    42   1
    45    42    43   1
    46    43    44   1
    47    43    48   1
    48    44    45   1
    49    45    46   1
    50    46    47   1
    51    48    49   2
    52    48    50  am
    53    50    51   1
    54    51    52   1
    55    51    54   1
    56    52    53   2
    57    52    55  am
    58    55    56   1
    59    56    57   1
    60    56    59   1
    61    57    58  ar
    62    57    65  ar
    63    59    60   1
    64    60    61   1
    65    60    62   2
    66    61    63   1
    67    62    64   1
    68    63    64   2
    69     1    66   1
    70     1    67   1
    71     2    68   1
    72     5    69   1
    73     5    70   1
    74     6    71   1
    75     6    72   1
    76     7    73   1
    77     7    74   1
    78     8    75   1
    79     9    76   1
    80    12    77   1
    81    12    78   1
    82    14    79   1
    83    15    80   1
    84    16    81   1
    85    18    82   1
    86    19    83   1
    87    22    84   1
    88    22    85   1
    89    23    86   1
    90    24    87   1
    91    24    88   1
    92    24    89   1
    93    25    90   1
    94    25    91   1
    95    25    92   1
    96    26    93   1
    97    27    94   1
    98    30    95   1
    99    30    96   1
   100    31    97   1
   101    32    98   1
   102    33    99   1
   103    34   100   1
   104    34   101   1
   105    36   102   1
   106    37   103   1
   107    38   104   1
   108    39   105   1
   109    40   106   1
   110    41   107   1
   111    41   108   1
   112    42   109   1
   113    42   110   1
   114    43   111   1
   115    44   112   1
   116    44   113   1
   117    45   114   1
   118    45   115   1
   119    47   116   1
   120    47   117   1
   121    47   118   1
   122    50   119   1
   123    51   120   1
   124    54   121   1
   125    54   122   1
   126    54   123   1
   127    55   124   1
   128    56   125   1
   129    59   126   1
   130    59   127   1
   131    61   128   1
   132    62   129   1
   133    63   130   1
@<TRIPOS>SUBSTRUCTURE
     1  PRO      2

