@<TRIPOS>MOLECULE
3uri_ligand_065
   130   133
SMALL
GAST_HUCK
****
This file was generated by PARSER (from files_GN.cpp)

@<TRIPOS>ATOM
      1 N           2.4922   23.2792   26.8696 N.4         1 PRO       0.2461
      2 CA          2.0175   23.7415   25.5558 C.3         1 PRO       0.0670
      3 C           3.1363   24.0816   24.6895 C.2         1 PRO       0.2269
      4 O           3.3478   23.4016   23.6926 O.2         1 PRO      -0.3907
      5 CB          1.0537   24.9002   25.8998 C.3         1 PRO       0.0127
      6 CG          0.4563   24.5029   27.2635 C.3         1 PRO      -0.0053
      7 CD          1.3677   23.3821   27.8064 C.3         1 PRO      -0.0313
      8 N           3.9488   25.0781   25.0252 N.am        1 PRO      -0.2592
      9 CA          5.1561   25.5195   24.3843 C.3         1 PRO       0.1422
     10 C           4.9254   26.0008   23.0202 C.2         1 PRO       0.2060
     11 O           4.7728   27.2050   22.8491 O.2         1 PRO      -0.3942
     12 CB          6.3212   24.4894   24.5084 C.3         1 PRO       0.0427
     13 CG          6.7032   24.2063   25.9086 C.2         1 PRO       0.0561
     14 ND1         7.2117   25.0848   26.7824 N.pl3       1 PRO      -0.2623
     15 CD2         6.6116   22.9918   26.5852 C.2         1 PRO      -0.0276
     16 CE1         7.4269   24.4514   27.9461 C.2         1 PRO       0.0875
     17 NE2         7.0617   23.1631   27.8387 N.2         1 PRO      -0.3437
     18 N           4.9382   25.1692   21.9788 N.am        1 PRO      -0.2636
     19 CA          4.8238   25.5051   20.5776 C.3         1 PRO       0.1312
     20 C           5.8633   26.4316   20.1238 C.2         1 PRO       0.2040
     21 O           6.7549   26.7786   20.8938 O.2         1 PRO      -0.3944
     22 CB          3.3567   25.9187   20.2138 C.3         1 PRO      -0.0101
     23 CG          2.2928   24.7784   20.3721 C.3         1 PRO      -0.0425
     24 CD1         0.8574   25.3551   20.5118 C.3         1 PRO      -0.0625
     25 CD2         2.3392   23.7587   19.1958 C.3         1 PRO      -0.0625
     26 N           5.9286   26.7844   18.8446 N.am        1 PRO      -0.2616
     27 CA          6.9547   27.5771   18.2226 C.3         1 PRO       0.1538
     28 C           7.2394   28.8482   18.8913 C.2         1 PRO       0.2045
     29 O           8.3395   29.3550   18.7015 O.2         1 PRO      -0.3944
     30 CB          6.5812   27.7894   16.7301 C.3         1 PRO       0.0843
     31 OG          7.6945   28.1980   15.9414 O.3         1 PRO      -0.3903
     32 N           6.3652   29.4291   19.7088 N.am        1 PRO      -0.2748
     33 C1          6.5260   30.6417   20.4703 C.3         1 PRO       0.0911
     34 C2          7.7195   30.5545   21.4851 C.3         1 PRO       0.0089
     35 C3          7.3995   29.9215   22.7991 C.ar        1 PRO      -0.0406
     36 C4          7.8689   28.6267   23.1313 C.ar        1 PRO      -0.0603
     37 C5          6.7018   30.6595   23.7878 C.ar        1 PRO      -0.0603
     38 C6          7.6490   28.0871   24.4121 C.ar        1 PRO      -0.0686
     39 C7          6.4797   30.1185   25.0682 C.ar        1 PRO      -0.0686
     40 C8          6.9587   28.8358   25.3833 C.ar        1 PRO      -0.0687
     41 C9          6.6357   31.9125   19.5818 C.3         1 PRO      -0.0062
     42 N2          5.6343   31.9736   18.4815 N.4         1 PRO       0.2479
     43 C10         5.4553   33.2922   17.8120 C.3         1 PRO       0.0676
     44 C11         6.7766   33.9279   17.2307 C.3         1 PRO       0.0169
     45 C12         6.9852   34.1700   15.7099 C.3         1 PRO       0.0007
     46 SD          7.2924   32.7482   14.6254 S.3         1 PRO      -0.1638
     47 C13         8.4731   31.7894   15.5926 C.3         1 PRO      -0.0181
     48 C           4.3251   33.2099   16.8845 C.2         1 PRO       0.2268
     49 O           3.3018   33.8420   17.1301 O.2         1 PRO      -0.3907
     50 N           4.4169   32.4839   15.7755 N.am        1 PRO      -0.2613
     51 CA          3.5447   32.4420   14.6272 C.3         1 PRO       0.1283
     52 C           3.2910   33.7333   13.9834 C.2         1 PRO       0.2032
     53 O           3.2145   34.7580   14.6548 O.2         1 PRO      -0.3944
     54 CB          2.2387   31.6713   14.9470 C.3         1 PRO      -0.0244
     55 N           3.0257   33.7912   12.6801 N.am        1 PRO      -0.2677
     56 CA          2.7458   34.9596   11.8814 C.3         1 PRO       0.1056
     57 C           2.2389   36.1401   12.6309 C.2         1 PRO       0.0621
     58 O           1.1609   36.0387   13.4421 O.co2       1 PRO      -0.5664
     59 CB          1.7642   34.5985   10.7256 C.3         1 PRO       0.0372
     60 CG          0.3872   34.2809   11.1673 C.2         1 PRO       0.0555
     61 ND1        -0.7083   35.0237   10.9502 N.pl3       1 PRO      -0.2623
     62 CD2        -0.0291   33.1936   11.9293 C.2         1 PRO      -0.0276
     63 CE1        -1.7483   34.4391   11.5628 C.2         1 PRO       0.0875
     64 NE2        -1.3441   33.3109   12.1696 N.2         1 PRO      -0.3437
     65 OXT         2.8784   37.3303   12.5562 O.co2       1 PRO      -0.5664
     66 H1          3.2438   23.8912   27.1945 H           1 PRO       0.2035
     67 H2          2.8345   22.3181   26.8128 H           1 PRO       0.2035
     68 H3          1.4331   22.9321   25.1021 H           1 PRO       0.1099
     69 H4          0.2769   25.0131   25.1389 H           1 PRO       0.0347
     70 H5          1.5836   25.8512   25.9995 H           1 PRO       0.0347
     71 H6         -0.5654   24.1343   27.1443 H           1 PRO       0.0320
     72 H7          0.4431   25.3579   27.9447 H           1 PRO       0.0320
     73 H8          1.7414   23.6125   28.8057 H           1 PRO       0.0814
     74 H9          0.8329   22.4293   27.8391 H           1 PRO       0.0814
     75 H10         3.7160   25.5616   25.8358 H           1 PRO       0.1886
     76 H11         5.4681   26.3857   24.9777 H           1 PRO       0.0824
     77 H12         7.2052   24.8750   23.9945 H           1 PRO       0.0491
     78 H13         6.0400   23.5533   24.0230 H           1 PRO       0.0491
     79 H14         7.3958   26.0205   26.6056 H           1 PRO       0.2386
     80 H15         6.2612   22.1126   26.2007 H           1 PRO       0.0324
     81 H16         7.8085   24.8845   28.7880 H           1 PRO       0.1149
     82 H17         5.0864   24.2317   22.1759 H           1 PRO       0.1883
     83 H18         5.0446   24.5801   20.0417 H           1 PRO       0.0800
     84 H19         3.3076   26.2736   19.1822 H           1 PRO       0.0315
     85 H20         3.0725   26.7685   20.8397 H           1 PRO       0.0315
     86 H21         2.5025   24.2282   21.2944 H           1 PRO       0.0298
     87 H22         0.1278   24.5472   20.6208 H           1 PRO       0.0232
     88 H23         0.5908   25.9492   19.6327 H           1 PRO       0.0232
     89 H24         0.7887   25.9907   21.3990 H           1 PRO       0.0232
     90 H25         3.3184   23.2834   19.1305 H           1 PRO       0.0232
     91 H26         2.1271   24.2596   18.2478 H           1 PRO       0.0232
     92 H27         1.5981   22.9681   19.3423 H           1 PRO       0.0232
     93 H28         5.2584   26.4040   18.2591 H           1 PRO       0.1884
     94 H29         7.8638   26.9683   18.2502 H           1 PRO       0.0823
     95 H30         5.7850   28.5285   16.6382 H           1 PRO       0.0606
     96 H31         6.2210   26.8542   16.2993 H           1 PRO       0.0606
     97 H32         7.9761   29.0647   16.3000 H           1 PRO       0.2097
     98 H33         5.5083   28.9847   19.8119 H           1 PRO       0.1859
     99 H34         5.5990   30.7573   21.0395 H           1 PRO       0.0632
    100 H35         8.0918   31.5561   21.7104 H           1 PRO       0.0450
    101 H36         8.5507   30.0296   21.0114 H           1 PRO       0.0450
    102 H37         8.3840   28.0707   22.4471 H           1 PRO       0.0557
    103 H38         6.3721   31.6048   23.5859 H           1 PRO       0.0557
    104 H39         8.0000   27.1551   24.6441 H           1 PRO       0.0599
    105 H40         5.9873   30.6690   25.7758 H           1 PRO       0.0599
    106 H41         6.8068   28.4476   26.3182 H           1 PRO       0.0559
    107 H42         7.6394   31.9537   19.1610 H           1 PRO       0.0839
    108 H43         6.5094   32.7854   20.2342 H           1 PRO       0.0839
    109 H44         4.7271   31.7532   18.8981 H           1 PRO       0.2036
    110 H45         5.8593   31.2639   17.7804 H           1 PRO       0.2036
    111 H46         5.1305   33.9682   18.6161 H           1 PRO       0.1099
    112 H47         7.6418   33.3677   17.5803 H           1 PRO       0.0354
    113 H48         6.8773   34.9119   17.6993 H           1 PRO       0.0354
    114 H49         7.8347   34.8484   15.5941 H           1 PRO       0.0380
    115 H50         6.1100   34.6917   15.3225 H           1 PRO       0.0380
    116 H51         8.8909   31.0106   14.9503 H           1 PRO       0.0340
    117 H52         7.9629   31.3246   16.4341 H           1 PRO       0.0340
    118 H53         9.2807   32.4239   15.9537 H           1 PRO       0.0340
    119 H54         5.2195   31.9490   15.6954 H           1 PRO       0.1884
    120 H55         4.0881   31.8350   13.8957 H           1 PRO       0.0797
    121 H56         1.6914   31.4528   14.0272 H           1 PRO       0.0277
    122 H57         1.5955   32.2560   15.6099 H           1 PRO       0.0277
    123 H58         2.4774   30.7221   15.4326 H           1 PRO       0.0277
    124 H59         3.1206   32.9567   12.1855 H           1 PRO       0.1877
    125 H60         3.6946   35.2473   11.4143 H           1 PRO       0.0750
    126 H61         2.1544   33.7440   10.1658 H           1 PRO       0.0484
    127 H62         1.7209   35.4442   10.0349 H           1 PRO       0.0484
    128 H63        -0.7394   35.8578   10.4570 H           1 PRO       0.2386
    129 H64         0.5639   32.4301   12.2587 H           1 PRO       0.0324
    130 H65        -2.7042   34.7989   11.5756 H           1 PRO       0.1149
@<TRIPOS>BOND
     1     1     2   1
     2     1     7   1
     3     2     3   1
     4     2     5   1
     5     3     4   2
     6     3     8  am
     7     5     6   1
     8     6     7   1
     9     8     9   1
    10     9    10   1
    11     9    12   1
    12    10    11   2
    13    10    18  am
    14    12    13   1
    15    13    14   1
    16    13    15   2
    17    14    16   1
    18    15    17   1
    19    16    17   2
    20    18    19   1
    21    19    20   1
    22    19    22   1
    23    20    21   2
    24    20    26  am
    25    22    23   1
    26    23    24   1
    27    23    25   1
    28    26    27   1
    29    27    28   1
    30    27    30   1
    31    28    29   2
    32    28    32  am
    33    30    31   1
    34    32    33   1
    35    33    34   1
    36    33    41   1
    37    34    35   1
    38    35    36  ar
    39    35    37  ar
    40    36    38  ar
    41    37    39  ar
    42    38    40  ar
    43    39    40  ar
    44    41    42   1
    45    42    43   1
    46    43    44   1
    47    43    48   1
    48    44    45   1
    49    45    46   1
    50    46    47   1
    51    48    49   2
    52    48    50  am
    53    50    51   1
    54    51    52   1
    55    51    54   1
    56    52    53   2
    57    52    55  am
    58    55    56   1
    59    56    57   1
    60    56    59   1
    61    57    58  ar
    62    57    65  ar
    63    59    60   1
    64    60    61   1
    65    60    62   2
    66    61    63   1
    67    62    64   1
    68    63    64   2
    69     1    66   1
    70     1    67   1
    71     2    68   1
    72     5    69   1
    73     5    70   1
    74     6    71   1
    75     6    72   1
    76     7    73   1
    77     7    74   1
    78     8    75   1
    79     9    76   1
    80    12    77   1
    81    12    78   1
    82    14    79   1
    83    15    80   1
    84    16    81   1
    85    18    82   1
    86    19    83   1
    87    22    84   1
    88    22    85   1
    89    23    86   1
    90    24    87   1
    91    24    88   1
    92    24    89   1
    93    25    90   1
    94    25    91   1
    95    25    92   1
    96    26    93   1
    97    27    94   1
    98    30    95   1
    99    30    96   1
   100    31    97   1
   101    32    98   1
   102    33    99   1
   103    34   100   1
   104    34   101   1
   105    36   102   1
   106    37   103   1
   107    38   104   1
   108    39   105   1
   109    40   106   1
   110    41   107   1
   111    41   108   1
   112    42   109   1
   113    42   110   1
   114    43   111   1
   115    44   112   1
   116    44   113   1
   117    45   114   1
   118    45   115   1
   119    47   116   1
   120    47   117   1
   121    47   118   1
   122    50   119   1
   123    51   120   1
   124    54   121   1
   125    54   122   1
   126    54   123   1
   127    55   124   1
   128    56   125   1
   129    59   126   1
   130    59   127   1
   131    61   128   1
   132    62   129   1
   133    63   130   1
@<TRIPOS>SUBSTRUCTURE
     1  PRO      2

