@<TRIPOS>MOLECULE
3uri_ligand_023
   130   133
SMALL
GAST_HUCK
****
This file was generated by PARSER (from files_GN.cpp)

@<TRIPOS>ATOM
      1 N           0.9029   29.9230   15.1706 N.4         1 PRO       0.2461
      2 CA          1.2666   30.8463   16.2590 C.3         1 PRO       0.0670
      3 C           2.1976   30.2519   17.2082 C.2         1 PRO       0.2269
      4 O           1.8437   30.0176   18.3575 O.2         1 PRO      -0.3907
      5 CB         -0.1128   31.2848   16.8041 C.3         1 PRO       0.0127
      6 CG         -0.9779   31.4032   15.5394 C.3         1 PRO      -0.0053
      7 CD         -0.3364   30.4136   14.5440 C.3         1 PRO      -0.0313
      8 N           3.4548   30.0506   16.8252 N.am        1 PRO      -0.2592
      9 CA          4.5517   29.6037   17.6434 C.3         1 PRO       0.1422
     10 C           5.6227   30.5865   17.5068 C.2         1 PRO       0.2060
     11 O           6.7444   30.2655   17.1253 O.2         1 PRO      -0.3942
     12 CB          4.8931   28.1322   17.2592 C.3         1 PRO       0.0427
     13 CG          5.8504   27.4866   18.1859 C.2         1 PRO       0.0561
     14 ND1         5.5150   26.7005   19.2185 N.pl3       1 PRO      -0.2623
     15 CD2         7.2412   27.5286   18.1694 C.2         1 PRO      -0.0276
     16 CE1         6.6390   26.2661   19.8100 C.2         1 PRO       0.0875
     17 NE2         7.7099   26.7717   19.1727 N.2         1 PRO      -0.3437
     18 N           5.3479   31.8470   17.8167 N.am        1 PRO      -0.2636
     19 CA          6.2362   32.9766   17.8543 C.3         1 PRO       0.1312
     20 C           6.5531   33.4332   16.4971 C.2         1 PRO       0.2040
     21 O           7.7054   33.3949   16.0818 O.2         1 PRO      -0.3944
     22 CB          7.4618   32.7305   18.8013 C.3         1 PRO      -0.0101
     23 CG          7.1389   32.1193   20.2063 C.3         1 PRO      -0.0425
     24 CD1         8.4372   31.6569   20.9212 C.3         1 PRO      -0.0625
     25 CD2         6.3366   33.0846   21.1243 C.3         1 PRO      -0.0625
     26 N           5.5652   33.8680   15.7153 N.am        1 PRO      -0.2616
     27 CA          5.6543   34.2983   14.3383 C.3         1 PRO       0.1538
     28 C           4.6761   35.3416   14.0190 C.2         1 PRO       0.2045
     29 O           3.5870   35.3210   14.5725 O.2         1 PRO      -0.3944
     30 CB          5.4942   33.0577   13.4202 C.3         1 PRO       0.0843
     31 OG          5.2237   33.4406   12.0733 O.3         1 PRO      -0.3903
     32 N           4.9863   36.3015   13.1556 N.am        1 PRO      -0.2748
     33 C1          4.2667   37.5297   12.8956 C.3         1 PRO       0.0911
     34 C2          5.2976   38.5175   12.2641 C.3         1 PRO       0.0089
     35 C3          4.9219   39.9603   12.2712 C.ar        1 PRO      -0.0406
     36 C4          4.8055   40.6883   11.0610 C.ar        1 PRO      -0.0603
     37 C5          4.7454   40.6529   13.4947 C.ar        1 PRO      -0.0603
     38 C6          4.5399   42.0723   11.0731 C.ar        1 PRO      -0.0686
     39 C7          4.4745   42.0366   13.5043 C.ar        1 PRO      -0.0686
     40 C8          4.3851   42.7481   12.2979 C.ar        1 PRO      -0.0687
     41 C9          3.0198   37.3457   11.9780 C.3         1 PRO      -0.0062
     42 N2          1.9118   36.6589   12.6742 N.4         1 PRO       0.2479
     43 C10         0.5231   37.0666   12.3344 C.3         1 PRO       0.0676
     44 C11        -0.4373   35.9199   12.7733 C.3         1 PRO       0.0169
     45 C12        -1.9233   36.2808   13.0475 C.3         1 PRO       0.0007
     46 SD         -2.8166   36.8746   11.5849 S.3         1 PRO      -0.1638
     47 C13        -4.2703   35.8066   11.7353 C.3         1 PRO      -0.0181
     48 C           0.2044   38.3453   12.9606 C.2         1 PRO       0.2268
     49 O           0.2322   38.4132   14.1856 O.2         1 PRO      -0.3907
     50 N          -0.1555   39.3854   12.2125 N.am        1 PRO      -0.2613
     51 CA         -0.5648   40.7007   12.6364 C.3         1 PRO       0.1283
     52 C           0.5297   41.5972   13.0258 C.2         1 PRO       0.2032
     53 O           1.6931   41.2073   13.0380 O.2         1 PRO      -0.3944
     54 CB         -1.6968   40.6340   13.7030 C.3         1 PRO      -0.0244
     55 N           0.2520   42.8687   13.2834 N.am        1 PRO      -0.2677
     56 CA          1.1712   43.9063   13.6788 C.3         1 PRO       0.1056
     57 C           1.3118   43.8781   15.1515 C.2         1 PRO       0.0621
     58 O           0.2571   44.1444   15.9560 O.co2       1 PRO      -0.5664
     59 CB          0.6680   45.2995   13.1957 C.3         1 PRO       0.0372
     60 CG          0.5510   45.3878   11.7261 C.2         1 PRO       0.0555
     61 ND1        -0.4738   45.9151   11.0432 N.pl3       1 PRO      -0.2623
     62 CD2         1.4669   44.9463   10.7766 C.2         1 PRO      -0.0276
     63 CE1        -0.2179   45.7981    9.7336 C.2         1 PRO       0.0875
     64 NE2         0.9735   45.2048    9.5567 N.2         1 PRO      -0.3437
     65 OXT         2.4859   43.5268   15.7284 O.co2       1 PRO      -0.5664
     66 H1          0.7349   28.9910   15.5570 H           1 PRO       0.2035
     67 H2          1.6508   29.8753   14.4782 H           1 PRO       0.2035
     68 H3          1.7565   31.7247   15.8231 H           1 PRO       0.1099
     69 H4         -0.0564   32.2326   17.3465 H           1 PRO       0.0347
     70 H5         -0.5376   30.5195   17.4616 H           1 PRO       0.0347
     71 H6         -0.9268   32.4217   15.1425 H           1 PRO       0.0320
     72 H7         -2.0230   31.1505   15.7411 H           1 PRO       0.0320
     73 H8         -0.9974   29.5675   14.3402 H           1 PRO       0.0814
     74 H9         -0.0956   30.9099   13.6000 H           1 PRO       0.0814
     75 H10         3.6706   30.2566   15.9016 H           1 PRO       0.1886
     76 H11         4.2664   29.5932   18.7010 H           1 PRO       0.0824
     77 H12         5.2797   28.0765   16.2392 H           1 PRO       0.0491
     78 H13         3.9749   27.5385   17.2827 H           1 PRO       0.0491
     79 H14         4.6099   26.4744   19.4932 H           1 PRO       0.2386
     80 H15         7.8219   28.0365   17.5014 H           1 PRO       0.0324
     81 H16         6.6754   25.6426   20.6199 H           1 PRO       0.1149
     82 H17         4.4408   32.0237   18.1096 H           1 PRO       0.1883
     83 H18         5.6662   33.7949   18.3042 H           1 PRO       0.0800
     84 H19         7.9888   33.6796   18.9447 H           1 PRO       0.0315
     85 H20         8.1543   32.0564   18.2908 H           1 PRO       0.0315
     86 H21         6.5275   31.2240   20.0600 H           1 PRO       0.0298
     87 H22         8.1999   31.1666   21.8666 H           1 PRO       0.0232
     88 H23         9.0897   32.5067   21.1262 H           1 PRO       0.0232
     89 H24         8.9817   30.9426   20.3015 H           1 PRO       0.0232
     90 H25         5.3735   33.3338   20.6791 H           1 PRO       0.0232
     91 H26         6.8953   34.0079   21.2953 H           1 PRO       0.0232
     92 H27         6.1366   32.6148   22.0900 H           1 PRO       0.0232
     93 H28         4.6707   33.8354   16.0948 H           1 PRO       0.1884
     94 H29         6.6517   34.7087   14.1580 H           1 PRO       0.0823
     95 H30         4.6820   32.4146   13.7749 H           1 PRO       0.0606
     96 H31         6.4224   32.4750   13.4232 H           1 PRO       0.0606
     97 H32         4.8980   32.6233   11.6437 H           1 PRO       0.2097
     98 H33         5.8726   36.2271   12.7573 H           1 PRO       0.1859
     99 H34         3.9482   37.9564   13.8538 H           1 PRO       0.0632
    100 H35         5.4921   38.1896   11.2392 H           1 PRO       0.0450
    101 H36         6.2526   38.4440   12.7960 H           1 PRO       0.0450
    102 H37         4.9262   40.2196   10.1578 H           1 PRO       0.0557
    103 H38         4.8500   40.1599   14.3865 H           1 PRO       0.0557
    104 H39         4.4683   42.5866   10.1920 H           1 PRO       0.0599
    105 H40         4.3625   42.5278   14.3970 H           1 PRO       0.0599
    106 H41         4.2131   43.7573   12.3096 H           1 PRO       0.0559
    107 H42         3.2973   36.7691   11.0936 H           1 PRO       0.0839
    108 H43         2.7018   38.3334   11.6413 H           1 PRO       0.0839
    109 H44         2.0288   36.7973   13.6791 H           1 PRO       0.2036
    110 H45         2.0064   35.6622   12.4777 H           1 PRO       0.2036
    111 H46         0.4448   37.1528   11.2457 H           1 PRO       0.1099
    112 H47        -0.0466   35.4569   13.6815 H           1 PRO       0.0354
    113 H48        -0.4193   35.1506   11.9984 H           1 PRO       0.0354
    114 H49        -1.9817   37.0483   13.8215 H           1 PRO       0.0380
    115 H50        -2.4198   35.3871   13.4368 H           1 PRO       0.0380
    116 H51        -5.0170   36.1194   11.0010 H           1 PRO       0.0340
    117 H52        -4.7031   35.8792   12.7379 H           1 PRO       0.0340
    118 H53        -3.9868   34.7692   11.5317 H           1 PRO       0.0340
    119 H54        -0.1697   39.2386   11.2506 H           1 PRO       0.1884
    120 H55        -1.0118   41.1420   11.7399 H           1 PRO       0.0797
    121 H56        -2.1773   41.6088   13.8181 H           1 PRO       0.0277
    122 H57        -1.3040   40.3338   14.6774 H           1 PRO       0.0277
    123 H58        -2.4588   39.9119   13.3945 H           1 PRO       0.0277
    124 H59        -0.6799   43.1262   13.1938 H           1 PRO       0.1877
    125 H60         2.1489   43.7238   13.2236 H           1 PRO       0.0750
    126 H61         1.3580   46.0785   13.5308 H           1 PRO       0.0484
    127 H62        -0.3072   45.5154   13.6420 H           1 PRO       0.0484
    128 H63        -1.2720   46.3068   11.4275 H           1 PRO       0.2386
    129 H64         2.3654   44.5022   10.9669 H           1 PRO       0.0324
    130 H65        -0.8324   46.1127    8.9821 H           1 PRO       0.1149
@<TRIPOS>BOND
     1     1     2   1
     2     1     7   1
     3     2     3   1
     4     2     5   1
     5     3     4   2
     6     3     8  am
     7     5     6   1
     8     6     7   1
     9     8     9   1
    10     9    10   1
    11     9    12   1
    12    10    11   2
    13    10    18  am
    14    12    13   1
    15    13    14   1
    16    13    15   2
    17    14    16   1
    18    15    17   1
    19    16    17   2
    20    18    19   1
    21    19    20   1
    22    19    22   1
    23    20    21   2
    24    20    26  am
    25    22    23   1
    26    23    24   1
    27    23    25   1
    28    26    27   1
    29    27    28   1
    30    27    30   1
    31    28    29   2
    32    28    32  am
    33    30    31   1
    34    32    33   1
    35    33    34   1
    36    33    41   1
    37    34    35   1
    38    35    36  ar
    39    35    37  ar
    40    36    38  ar
    41    37    39  ar
    42    38    40  ar
    43    39    40  ar
    44    41    42   1
    45    42    43   1
    46    43    44   1
    47    43    48   1
    48    44    45   1
    49    45    46   1
    50    46    47   1
    51    48    49   2
    52    48    50  am
    53    50    51   1
    54    51    52   1
    55    51    54   1
    56    52    53   2
    57    52    55  am
    58    55    56   1
    59    56    57   1
    60    56    59   1
    61    57    58  ar
    62    57    65  ar
    63    59    60   1
    64    60    61   1
    65    60    62   2
    66    61    63   1
    67    62    64   1
    68    63    64   2
    69     1    66   1
    70     1    67   1
    71     2    68   1
    72     5    69   1
    73     5    70   1
    74     6    71   1
    75     6    72   1
    76     7    73   1
    77     7    74   1
    78     8    75   1
    79     9    76   1
    80    12    77   1
    81    12    78   1
    82    14    79   1
    83    15    80   1
    84    16    81   1
    85    18    82   1
    86    19    83   1
    87    22    84   1
    88    22    85   1
    89    23    86   1
    90    24    87   1
    91    24    88   1
    92    24    89   1
    93    25    90   1
    94    25    91   1
    95    25    92   1
    96    26    93   1
    97    27    94   1
    98    30    95   1
    99    30    96   1
   100    31    97   1
   101    32    98   1
   102    33    99   1
   103    34   100   1
   104    34   101   1
   105    36   102   1
   106    37   103   1
   107    38   104   1
   108    39   105   1
   109    40   106   1
   110    41   107   1
   111    41   108   1
   112    42   109   1
   113    42   110   1
   114    43   111   1
   115    44   112   1
   116    44   113   1
   117    45   114   1
   118    45   115   1
   119    47   116   1
   120    47   117   1
   121    47   118   1
   122    50   119   1
   123    51   120   1
   124    54   121   1
   125    54   122   1
   126    54   123   1
   127    55   124   1
   128    56   125   1
   129    59   126   1
   130    59   127   1
   131    61   128   1
   132    62   129   1
   133    63   130   1
@<TRIPOS>SUBSTRUCTURE
     1  PRO      2

