@<TRIPOS>MOLECULE
3uri_ligand_041
   130   133
SMALL
GAST_HUCK
****
This file was generated by PARSER (from files_GN.cpp)

@<TRIPOS>ATOM
      1 N           1.7803   30.5999   17.9545 N.4         1 PRO       0.2461
      2 CA          0.7820   29.8317   18.7350 C.3         1 PRO       0.0670
      3 C           1.1169   28.4232   18.9150 C.2         1 PRO       0.2269
      4 O           2.0210   27.9366   18.2339 O.2         1 PRO      -0.3907
      5 CB         -0.5543   30.0300   17.9862 C.3         1 PRO       0.0127
      6 CG         -0.4275   31.4530   17.4207 C.3         1 PRO      -0.0053
      7 CD          1.0759   31.5814   17.1110 C.3         1 PRO      -0.0313
      8 N           0.4723   27.6904   19.8210 N.am        1 PRO      -0.2592
      9 CA          0.6524   26.2889   20.1224 C.3         1 PRO       0.1422
     10 C           2.0754   25.9854   20.2550 C.2         1 PRO       0.2060
     11 O           2.6168   25.2801   19.4036 O.2         1 PRO      -0.3942
     12 CB         -0.1214   25.3580   19.1321 C.3         1 PRO       0.0427
     13 CG         -1.5807   25.3096   19.3752 C.2         1 PRO       0.0561
     14 ND1        -2.3778   24.2629   19.1393 N.pl3       1 PRO      -0.2623
     15 CD2        -2.3923   26.3126   19.8945 C.2         1 PRO      -0.0276
     16 CE1        -3.6295   24.5906   19.4955 C.2         1 PRO       0.0875
     17 NE2        -3.6514   25.8494   19.9649 N.2         1 PRO      -0.3437
     18 N           2.7882   26.5471   21.2229 N.am        1 PRO      -0.2636
     19 CA          4.2164   26.4710   21.4070 C.3         1 PRO       0.1312
     20 C           4.9501   27.3300   20.4650 C.2         1 PRO       0.2040
     21 O           4.3480   28.0490   19.6752 O.2         1 PRO      -0.3944
     22 CB          4.7262   24.9857   21.4774 C.3         1 PRO      -0.0101
     23 CG          4.3317   24.1427   22.7369 C.3         1 PRO      -0.0425
     24 CD1         5.3200   24.3221   23.9293 C.3         1 PRO      -0.0625
     25 CD2         2.8591   24.3236   23.2004 C.3         1 PRO      -0.0625
     26 N           6.2753   27.4049   20.5458 N.am        1 PRO      -0.2616
     27 CA          7.1785   28.2826   19.8471 C.3         1 PRO       0.1538
     28 C           7.2797   29.5462   20.5728 C.2         1 PRO       0.2045
     29 O           8.3239   29.8461   21.1309 O.2         1 PRO      -0.3944
     30 CB          6.9172   28.5017   18.3209 C.3         1 PRO       0.0843
     31 OG          6.0574   27.5340   17.7318 O.3         1 PRO      -0.3903
     32 N           6.2259   30.3607   20.6106 N.am        1 PRO      -0.2748
     33 C1          6.1274   31.6882   21.1556 C.3         1 PRO       0.0911
     34 C2          6.6017   31.8137   22.6369 C.3         1 PRO       0.0089
     35 C3          6.0673   30.8287   23.6242 C.ar        1 PRO      -0.0406
     36 C4          4.8673   30.1019   23.4188 C.ar        1 PRO      -0.0603
     37 C5          6.7489   30.6492   24.8538 C.ar        1 PRO      -0.0603
     38 C6          4.3912   29.1955   24.3845 C.ar        1 PRO      -0.0686
     39 C7          6.2732   29.7454   25.8242 C.ar        1 PRO      -0.0686
     40 C8          5.1007   29.0100   25.5853 C.ar        1 PRO      -0.0687
     41 C9          6.7948   32.7453   20.2255 C.3         1 PRO      -0.0062
     42 N2          6.2816   32.6080   18.8366 N.4         1 PRO       0.2479
     43 C10         6.6328   33.6646   17.8455 C.3         1 PRO       0.0676
     44 C11         8.1426   33.6827   17.4260 C.3         1 PRO       0.0169
     45 C12         8.8306   32.3351   17.0381 C.3         1 PRO       0.0007
     46 SD          9.3081   31.2588   18.4131 S.3         1 PRO      -0.1638
     47 C13        10.8330   32.0622   18.9522 C.3         1 PRO      -0.0181
     48 C           5.6547   33.5876   16.7527 C.2         1 PRO       0.2268
     49 O           4.5135   33.9514   17.0229 O.2         1 PRO      -0.3907
     50 N           5.9191   33.1014   15.5401 N.am        1 PRO      -0.2613
     51 CA          4.9974   32.9057   14.4456 C.3         1 PRO       0.1283
     52 C           4.6041   34.1404   13.7591 C.2         1 PRO       0.2032
     53 O           4.8334   35.2381   14.2668 O.2         1 PRO      -0.3944
     54 CB          3.7677   32.0486   14.8703 C.3         1 PRO      -0.0244
     55 N           4.0162   34.0663   12.5663 N.am        1 PRO      -0.2677
     56 CA          3.5817   35.1761   11.7591 C.3         1 PRO       0.1056
     57 C           2.7621   36.1695   12.5045 C.2         1 PRO       0.0621
     58 O           2.5077   36.0194   13.8241 O.co2       1 PRO      -0.5664
     59 CB          2.8269   34.6541   10.4969 C.3         1 PRO       0.0372
     60 CG          1.5257   33.9977   10.7724 C.2         1 PRO       0.0555
     61 ND1         0.3810   34.2358   10.1107 N.pl3       1 PRO      -0.2623
     62 CD2         1.2105   33.0503   11.7461 C.2         1 PRO      -0.0276
     63 CE1        -0.5873   33.4844   10.6498 C.2         1 PRO       0.0875
     64 NE2        -0.0932   32.7494   11.6588 N.2         1 PRO      -0.3437
     65 OXT         2.2840   37.2737   11.8840 O.co2       1 PRO      -0.5664
     66 H1          2.3120   29.9635   17.3540 H           1 PRO       0.2035
     67 H2          2.4237   31.0824   18.5878 H           1 PRO       0.2035
     68 H3          0.7034   30.3173   19.7183 H           1 PRO       0.1099
     69 H4         -1.4193   29.9448   18.6566 H           1 PRO       0.0347
     70 H5         -0.6585   29.3091   17.1631 H           1 PRO       0.0347
     71 H6         -0.7374   32.1928   18.1716 H           1 PRO       0.0320
     72 H7         -1.0363   31.5818   16.5208 H           1 PRO       0.0320
     73 H8          1.2736   31.3488   16.0610 H           1 PRO       0.0814
     74 H9          1.4285   32.5887   17.3227 H           1 PRO       0.0814
     75 H10        -0.2227   28.1499   20.3320 H           1 PRO       0.1886
     76 H11         0.2075   26.1259   21.1127 H           1 PRO       0.0824
     77 H12         0.2644   24.3428   19.2436 H           1 PRO       0.0491
     78 H13         0.0528   25.6617   18.0960 H           1 PRO       0.0491
     79 H14        -2.1021   23.4092   18.7714 H           1 PRO       0.2386
     80 H15        -2.0932   27.2464   20.1783 H           1 PRO       0.0324
     81 H16        -4.4382   23.9765   19.4147 H           1 PRO       0.1149
     82 H17         2.2972   27.1043   21.8530 H           1 PRO       0.1883
     83 H18         4.3987   26.9086   22.3855 H           1 PRO       0.0800
     84 H19         5.8196   24.9799   21.4336 H           1 PRO       0.0315
     85 H20         4.3815   24.4539   20.5840 H           1 PRO       0.0315
     86 H21         4.4213   23.0921   22.4353 H           1 PRO       0.0298
     87 H22         5.0821   23.6052   24.7218 H           1 PRO       0.0232
     88 H23         5.2592   25.3324   24.3457 H           1 PRO       0.0232
     89 H24         6.3487   24.1364   23.6045 H           1 PRO       0.0232
     90 H25         2.1826   24.2317   22.3470 H           1 PRO       0.0232
     91 H26         2.7129   25.2984   23.6707 H           1 PRO       0.0232
     92 H27         2.5989   23.5474   23.9275 H           1 PRO       0.0232
     93 H28         6.6903   26.8149   21.1951 H           1 PRO       0.1884
     94 H29         8.1484   27.7774   19.9117 H           1 PRO       0.0823
     95 H30         7.8656   28.4899   17.7759 H           1 PRO       0.0606
     96 H31         6.4460   29.4729   18.1419 H           1 PRO       0.0606
     97 H32         6.5847   26.7130   17.6259 H           1 PRO       0.2097
     98 H33         5.4213   30.0351   20.1766 H           1 PRO       0.1859
     99 H34         5.0603   31.9298   21.1512 H           1 PRO       0.0632
    100 H35         6.3333   32.8086   23.0028 H           1 PRO       0.0450
    101 H36         7.6955   31.7660   22.6380 H           1 PRO       0.0450
    102 H37         4.3200   30.2219   22.5663 H           1 PRO       0.0557
    103 H38         7.5940   31.1873   25.0592 H           1 PRO       0.0557
    104 H39         3.5321   28.6687   24.2141 H           1 PRO       0.0599
    105 H40         6.7822   29.6248   26.7052 H           1 PRO       0.0599
    106 H41         4.7596   28.3496   26.2871 H           1 PRO       0.0559
    107 H42         7.8800   32.6273   20.2375 H           1 PRO       0.0839
    108 H43         6.5627   33.7474   20.6002 H           1 PRO       0.0839
    109 H44         5.2582   32.5853   18.9056 H           1 PRO       0.2036
    110 H45         6.5897   31.7028   18.4701 H           1 PRO       0.2036
    111 H46         6.4625   34.6413   18.3216 H           1 PRO       0.1099
    112 H47         8.7115   34.1468   18.2361 H           1 PRO       0.0354
    113 H48         8.2258   34.3629   16.5714 H           1 PRO       0.0354
    114 H49         9.7251   32.5467   16.4426 H           1 PRO       0.0380
    115 H50         8.1574   31.7461   16.4144 H           1 PRO       0.0380
    116 H51        11.2667   31.4564   19.7450 H           1 PRO       0.0340
    117 H52        10.6338   33.0580   19.3458 H           1 PRO       0.0340
    118 H53        11.5404   32.1242   18.1251 H           1 PRO       0.0340
    119 H54         6.8300   32.8135   15.3759 H           1 PRO       0.1884
    120 H55         5.5558   32.3160   13.7079 H           1 PRO       0.0797
    121 H56         3.2378   31.7080   13.9729 H           1 PRO       0.0277
    122 H57         3.0642   32.6276   15.4920 H           1 PRO       0.0277
    123 H58         4.1126   31.1736   15.4407 H           1 PRO       0.0277
    124 H59         3.9031   33.1799   12.1709 H           1 PRO       0.1877
    125 H60         4.4817   35.6900   11.4077 H           1 PRO       0.0750
    126 H61         3.4617   33.9456    9.9579 H           1 PRO       0.0484
    127 H62         2.6561   35.4987    9.8216 H           1 PRO       0.0484
    128 H63         0.2743   34.8551    9.3690 H           1 PRO       0.2386
    129 H64         1.8538   32.6417   12.4287 H           1 PRO       0.0324
    130 H65        -1.5645   33.4760   10.3494 H           1 PRO       0.1149
@<TRIPOS>BOND
     1     1     2   1
     2     1     7   1
     3     2     3   1
     4     2     5   1
     5     3     4   2
     6     3     8  am
     7     5     6   1
     8     6     7   1
     9     8     9   1
    10     9    10   1
    11     9    12   1
    12    10    11   2
    13    10    18  am
    14    12    13   1
    15    13    14   1
    16    13    15   2
    17    14    16   1
    18    15    17   1
    19    16    17   2
    20    18    19   1
    21    19    20   1
    22    19    22   1
    23    20    21   2
    24    20    26  am
    25    22    23   1
    26    23    24   1
    27    23    25   1
    28    26    27   1
    29    27    28   1
    30    27    30   1
    31    28    29   2
    32    28    32  am
    33    30    31   1
    34    32    33   1
    35    33    34   1
    36    33    41   1
    37    34    35   1
    38    35    36  ar
    39    35    37  ar
    40    36    38  ar
    41    37    39  ar
    42    38    40  ar
    43    39    40  ar
    44    41    42   1
    45    42    43   1
    46    43    44   1
    47    43    48   1
    48    44    45   1
    49    45    46   1
    50    46    47   1
    51    48    49   2
    52    48    50  am
    53    50    51   1
    54    51    52   1
    55    51    54   1
    56    52    53   2
    57    52    55  am
    58    55    56   1
    59    56    57   1
    60    56    59   1
    61    57    58  ar
    62    57    65  ar
    63    59    60   1
    64    60    61   1
    65    60    62   2
    66    61    63   1
    67    62    64   1
    68    63    64   2
    69     1    66   1
    70     1    67   1
    71     2    68   1
    72     5    69   1
    73     5    70   1
    74     6    71   1
    75     6    72   1
    76     7    73   1
    77     7    74   1
    78     8    75   1
    79     9    76   1
    80    12    77   1
    81    12    78   1
    82    14    79   1
    83    15    80   1
    84    16    81   1
    85    18    82   1
    86    19    83   1
    87    22    84   1
    88    22    85   1
    89    23    86   1
    90    24    87   1
    91    24    88   1
    92    24    89   1
    93    25    90   1
    94    25    91   1
    95    25    92   1
    96    26    93   1
    97    27    94   1
    98    30    95   1
    99    30    96   1
   100    31    97   1
   101    32    98   1
   102    33    99   1
   103    34   100   1
   104    34   101   1
   105    36   102   1
   106    37   103   1
   107    38   104   1
   108    39   105   1
   109    40   106   1
   110    41   107   1
   111    41   108   1
   112    42   109   1
   113    42   110   1
   114    43   111   1
   115    44   112   1
   116    44   113   1
   117    45   114   1
   118    45   115   1
   119    47   116   1
   120    47   117   1
   121    47   118   1
   122    50   119   1
   123    51   120   1
   124    54   121   1
   125    54   122   1
   126    54   123   1
   127    55   124   1
   128    56   125   1
   129    59   126   1
   130    59   127   1
   131    61   128   1
   132    62   129   1
   133    63   130   1
@<TRIPOS>SUBSTRUCTURE
     1  PRO      2

