@<TRIPOS>MOLECULE
3uri_ligand_004
   130   133
SMALL
GAST_HUCK
****
This file was generated by PARSER (from files_GN.cpp)

@<TRIPOS>ATOM
      1 N           4.4890   27.3859   18.5450 N.4         1 PRO       0.2461
      2 CA          3.0556   27.5056   18.2187 C.3         1 PRO       0.0670
      3 C           2.8052   28.5382   17.2179 C.2         1 PRO       0.2269
      4 O           2.7441   28.1816   16.0468 O.2         1 PRO      -0.3907
      5 CB          2.3443   27.6633   19.5829 C.3         1 PRO       0.0127
      6 CG          3.2061   26.8091   20.5234 C.3         1 PRO      -0.0053
      7 CD          4.6291   26.9361   19.9412 C.3         1 PRO      -0.0313
      8 N           2.6644   29.8197   17.5513 N.am        1 PRO      -0.2592
      9 CA          2.3850   30.9182   16.6558 C.3         1 PRO       0.1422
     10 C           3.2063   32.0662   17.0377 C.2         1 PRO       0.2060
     11 O           2.7018   33.1685   17.2232 O.2         1 PRO      -0.3942
     12 CB          0.8506   31.2074   16.6422 C.3         1 PRO       0.0427
     13 CG          0.0504   30.2514   15.8442 C.2         1 PRO       0.0561
     14 ND1         0.4035   29.7230   14.6607 N.pl3       1 PRO      -0.2623
     15 CD2        -1.2473   29.8082   16.0959 C.2         1 PRO      -0.0276
     16 CE1        -0.6209   28.9889   14.2020 C.2         1 PRO       0.0875
     17 NE2        -1.6473   29.0382   15.0694 N.2         1 PRO      -0.3437
     18 N           4.5251   31.9129   17.1030 N.am        1 PRO      -0.2636
     19 CA          5.5104   32.9320   17.3810 C.3         1 PRO       0.1312
     20 C           5.9084   33.6619   16.1753 C.2         1 PRO       0.2040
     21 O           6.8323   34.4615   16.2568 O.2         1 PRO      -0.3944
     22 CB          6.7156   32.2349   18.0891 C.3         1 PRO      -0.0101
     23 CG          6.4124   31.6242   19.5011 C.3         1 PRO      -0.0425
     24 CD1         7.5071   30.5977   19.9082 C.3         1 PRO      -0.0625
     25 CD2         6.2631   32.7057   20.6110 C.3         1 PRO      -0.0625
     26 N           5.2031   33.5629   15.0564 N.am        1 PRO      -0.2616
     27 CA          5.3957   34.2449   13.8009 C.3         1 PRO       0.1538
     28 C           4.2887   35.1701   13.5496 C.2         1 PRO       0.2045
     29 O           3.6788   35.6165   14.5166 O.2         1 PRO      -0.3944
     30 CB          5.5936   33.1015   12.7593 C.3         1 PRO       0.0843
     31 OG          4.5599   32.1208   12.8228 O.3         1 PRO      -0.3903
     32 N           3.9903   35.6015   12.3240 N.am        1 PRO      -0.2748
     33 C1          2.9421   36.5267   11.9496 C.3         1 PRO       0.0911
     34 C2          1.5177   36.1390   12.4656 C.3         1 PRO       0.0089
     35 C3          1.2361   34.6896   12.2732 C.ar        1 PRO      -0.0406
     36 C4          0.7112   34.2075   11.0493 C.ar        1 PRO      -0.0603
     37 C5          1.5664   33.7569   13.2840 C.ar        1 PRO      -0.0603
     38 C6          0.5380   32.8205   10.8412 C.ar        1 PRO      -0.0686
     39 C7          1.4348   32.3731   13.0577 C.ar        1 PRO      -0.0686
     40 C8          0.9195   31.9000   11.8376 C.ar        1 PRO      -0.0687
     41 C9          3.3370   37.9988   12.2940 C.3         1 PRO      -0.0062
     42 N2          4.1783   38.6024   11.2216 N.4         1 PRO       0.2479
     43 C10         3.6860   39.8109   10.4807 C.3         1 PRO       0.0676
     44 C11         2.3086   39.5737    9.7501 C.3         1 PRO       0.0169
     45 C12         1.2207   40.6855    9.8693 C.3         1 PRO       0.0007
     46 SD         -0.3096   40.3314    8.9523 S.3         1 PRO      -0.1638
     47 C13         0.2418   40.7237    7.2721 C.3         1 PRO      -0.0181
     48 C           3.7879   41.0489   11.2447 C.2         1 PRO       0.2268
     49 O           3.8580   41.0057   12.4679 O.2         1 PRO      -0.3907
     50 N           3.8175   42.2069   10.5929 N.am        1 PRO      -0.2613
     51 CA          3.9157   43.5174   11.1685 C.3         1 PRO       0.1283
     52 C           2.8527   43.7305   12.1506 C.2         1 PRO       0.2032
     53 O           1.7796   44.1923   11.7824 O.2         1 PRO      -0.3944
     54 CB          3.8999   44.5845   10.0372 C.3         1 PRO      -0.0244
     55 N           3.0721   43.4342   13.4275 N.am        1 PRO      -0.2677
     56 CA          2.2548   43.6923   14.5881 C.3         1 PRO       0.1056
     57 C           0.7803   43.6601   14.3715 C.2         1 PRO       0.0621
     58 O          -0.0607   44.0951   15.3460 O.co2       1 PRO      -0.5664
     59 CB          2.8025   44.9632   15.3141 C.3         1 PRO       0.0372
     60 CG          3.3751   45.9878   14.4144 C.2         1 PRO       0.0555
     61 ND1         4.6670   46.3487   14.3826 N.pl3       1 PRO      -0.2623
     62 CD2         2.7332   46.7335   13.4299 C.2         1 PRO      -0.0276
     63 CE1         4.8276   47.2576   13.4092 C.2         1 PRO       0.0875
     64 NE2         3.6464   47.4996   12.8109 N.2         1 PRO      -0.3437
     65 OXT         0.2768   42.7212   13.5374 O.co2       1 PRO      -0.5664
     66 H1          4.9546   28.2915   18.4334 H           1 PRO       0.2035
     67 H2          4.9129   26.6954   17.9188 H           1 PRO       0.2035
     68 H3          2.7535   26.5286   17.8132 H           1 PRO       0.1099
     69 H4          1.3099   27.3042   19.5480 H           1 PRO       0.0347
     70 H5          2.3531   28.7003   19.9311 H           1 PRO       0.0347
     71 H6          2.8788   25.7647   20.4889 H           1 PRO       0.0320
     72 H7          3.1587   27.1649   21.5571 H           1 PRO       0.0320
     73 H8          5.2072   27.6809   20.4960 H           1 PRO       0.0814
     74 H9          5.1552   25.9788   19.9772 H           1 PRO       0.0814
     75 H10         2.7195   30.0413   18.4945 H           1 PRO       0.1886
     76 H11         2.6842   30.6621   15.6310 H           1 PRO       0.0824
     77 H12         0.6762   32.1927   16.2011 H           1 PRO       0.0491
     78 H13         0.4679   31.2306   17.6683 H           1 PRO       0.0491
     79 H14         1.2591   29.8355   14.2147 H           1 PRO       0.2386
     80 H15        -1.8173   30.0516   16.9096 H           1 PRO       0.0324
     81 H16        -0.6187   28.4930   13.3136 H           1 PRO       0.1149
     82 H17         4.8650   31.0280   16.8775 H           1 PRO       0.1883
     83 H18         5.0945   33.6779   18.0706 H           1 PRO       0.0800
     84 H19         7.5362   32.9476   18.2049 H           1 PRO       0.0315
     85 H20         7.0712   31.4420   17.4234 H           1 PRO       0.0315
     86 H21         5.4673   31.0741   19.4468 H           1 PRO       0.0298
     87 H22         7.2727   30.1572   20.8808 H           1 PRO       0.0232
     88 H23         8.4854   31.0852   19.9665 H           1 PRO       0.0232
     89 H24         7.5572   29.7883   19.1741 H           1 PRO       0.0232
     90 H25         5.4421   33.3870   20.3829 H           1 PRO       0.0232
     91 H26         7.1851   33.2854   20.7086 H           1 PRO       0.0232
     92 H27         6.0456   32.2309   21.5715 H           1 PRO       0.0232
     93 H28         4.4353   32.9709   15.0865 H           1 PRO       0.1884
     94 H29         6.3131   34.8431   13.8192 H           1 PRO       0.0823
     95 H30         6.5369   32.5894   12.9739 H           1 PRO       0.0606
     96 H31         5.6564   33.5050   11.7468 H           1 PRO       0.0606
     97 H32         3.9145   32.3545   12.1255 H           1 PRO       0.2097
     98 H33         4.5131   35.2377   11.5897 H           1 PRO       0.1859
     99 H34         2.8780   36.4586   10.8587 H           1 PRO       0.0632
    100 H35         0.7633   36.7168   11.9251 H           1 PRO       0.0450
    101 H36         1.4146   36.4080   13.5180 H           1 PRO       0.0450
    102 H37         0.4646   34.8556   10.2928 H           1 PRO       0.0557
    103 H38         1.9575   34.0732   14.1791 H           1 PRO       0.0557
    104 H39         0.1525   32.4771    9.9575 H           1 PRO       0.0599
    105 H40         1.7312   31.7138   13.7776 H           1 PRO       0.0599
    106 H41         0.8325   30.8970   11.6727 H           1 PRO       0.0559
    107 H42         3.9113   38.0254   13.2277 H           1 PRO       0.0839
    108 H43         2.4414   38.5973   12.4649 H           1 PRO       0.0839
    109 H44         4.3721   37.8764   10.5202 H           1 PRO       0.2036
    110 H45         5.0821   38.8541   11.6431 H           1 PRO       0.2036
    111 H46         4.4426   39.9220    9.6939 H           1 PRO       0.1099
    112 H47         1.8792   38.6326   10.1048 H           1 PRO       0.0354
    113 H48         2.5153   39.4441    8.6817 H           1 PRO       0.0354
    114 H49         1.6255   41.6405    9.5161 H           1 PRO       0.0380
    115 H50         0.9353   40.8148   10.9131 H           1 PRO       0.0380
    116 H51        -0.6187   40.6621    6.5976 H           1 PRO       0.0340
    117 H52         1.0117   40.0107    6.9536 H           1 PRO       0.0340
    118 H53         0.6411   41.7424    7.2295 H           1 PRO       0.0340
    119 H54         3.8026   42.1585    9.6263 H           1 PRO       0.1884
    120 H55         4.8936   43.6124   11.6576 H           1 PRO       0.0797
    121 H56         3.9638   45.5908   10.4623 H           1 PRO       0.0277
    122 H57         2.9874   44.5121    9.4396 H           1 PRO       0.0277
    123 H58         4.7516   44.4450    9.3736 H           1 PRO       0.0277
    124 H59         3.9509   43.0806   13.6201 H           1 PRO       0.1877
    125 H60         2.4422   42.8485   15.2588 H           1 PRO       0.0750
    126 H61         3.5899   44.6436   16.0098 H           1 PRO       0.0484
    127 H62         2.0174   45.4289   15.9223 H           1 PRO       0.0484
    128 H63         5.3677   46.0006   14.9597 H           1 PRO       0.2386
    129 H64         1.7440   46.6833   13.1896 H           1 PRO       0.0324
    130 H65         5.7147   47.6932   13.1550 H           1 PRO       0.1149
@<TRIPOS>BOND
     1     1     2   1
     2     1     7   1
     3     2     3   1
     4     2     5   1
     5     3     4   2
     6     3     8  am
     7     5     6   1
     8     6     7   1
     9     8     9   1
    10     9    10   1
    11     9    12   1
    12    10    11   2
    13    10    18  am
    14    12    13   1
    15    13    14   1
    16    13    15   2
    17    14    16   1
    18    15    17   1
    19    16    17   2
    20    18    19   1
    21    19    20   1
    22    19    22   1
    23    20    21   2
    24    20    26  am
    25    22    23   1
    26    23    24   1
    27    23    25   1
    28    26    27   1
    29    27    28   1
    30    27    30   1
    31    28    29   2
    32    28    32  am
    33    30    31   1
    34    32    33   1
    35    33    34   1
    36    33    41   1
    37    34    35   1
    38    35    36  ar
    39    35    37  ar
    40    36    38  ar
    41    37    39  ar
    42    38    40  ar
    43    39    40  ar
    44    41    42   1
    45    42    43   1
    46    43    44   1
    47    43    48   1
    48    44    45   1
    49    45    46   1
    50    46    47   1
    51    48    49   2
    52    48    50  am
    53    50    51   1
    54    51    52   1
    55    51    54   1
    56    52    53   2
    57    52    55  am
    58    55    56   1
    59    56    57   1
    60    56    59   1
    61    57    58  ar
    62    57    65  ar
    63    59    60   1
    64    60    61   1
    65    60    62   2
    66    61    63   1
    67    62    64   1
    68    63    64   2
    69     1    66   1
    70     1    67   1
    71     2    68   1
    72     5    69   1
    73     5    70   1
    74     6    71   1
    75     6    72   1
    76     7    73   1
    77     7    74   1
    78     8    75   1
    79     9    76   1
    80    12    77   1
    81    12    78   1
    82    14    79   1
    83    15    80   1
    84    16    81   1
    85    18    82   1
    86    19    83   1
    87    22    84   1
    88    22    85   1
    89    23    86   1
    90    24    87   1
    91    24    88   1
    92    24    89   1
    93    25    90   1
    94    25    91   1
    95    25    92   1
    96    26    93   1
    97    27    94   1
    98    30    95   1
    99    30    96   1
   100    31    97   1
   101    32    98   1
   102    33    99   1
   103    34   100   1
   104    34   101   1
   105    36   102   1
   106    37   103   1
   107    38   104   1
   108    39   105   1
   109    40   106   1
   110    41   107   1
   111    41   108   1
   112    42   109   1
   113    42   110   1
   114    43   111   1
   115    44   112   1
   116    44   113   1
   117    45   114   1
   118    45   115   1
   119    47   116   1
   120    47   117   1
   121    47   118   1
   122    50   119   1
   123    51   120   1
   124    54   121   1
   125    54   122   1
   126    54   123   1
   127    55   124   1
   128    56   125   1
   129    59   126   1
   130    59   127   1
   131    61   128   1
   132    62   129   1
   133    63   130   1
@<TRIPOS>SUBSTRUCTURE
     1  PRO      2

