@<TRIPOS>MOLECULE
3uri_ligand_053
   130   133
SMALL
GAST_HUCK
****
This file was generated by PARSER (from files_GN.cpp)

@<TRIPOS>ATOM
      1 N           0.4182   25.3905   17.7066 N.4         1 PRO       0.2461
      2 CA          0.8945   26.7818   17.5781 C.3         1 PRO       0.0670
      3 C           0.6757   27.3067   16.2326 C.2         1 PRO       0.2269
      4 O           0.9359   26.5727   15.2857 O.2         1 PRO      -0.3907
      5 CB          2.3719   26.6756   18.0259 C.3         1 PRO       0.0127
      6 CG          2.3790   25.5514   19.0831 C.3         1 PRO      -0.0053
      7 CD          1.0266   24.8243   18.9146 C.3         1 PRO      -0.0313
      8 N           0.1822   28.5310   16.0562 N.am        1 PRO      -0.2592
      9 CA         -0.1491   29.1706   14.8009 C.3         1 PRO       0.1422
     10 C           0.6681   30.3544   14.5818 C.2         1 PRO       0.2060
     11 O           1.8437   30.3040   14.9616 O.2         1 PRO      -0.3942
     12 CB         -1.6971   29.3529   14.7088 C.3         1 PRO       0.0427
     13 CG         -2.3258   30.1213   15.8041 C.2         1 PRO       0.0561
     14 ND1        -2.6181   31.4342   15.7985 N.pl3       1 PRO      -0.2623
     15 CD2        -2.8818   29.6099   16.9719 C.2         1 PRO      -0.0276
     16 CE1        -3.3056   31.7222   16.9079 C.2         1 PRO       0.0875
     17 NE2        -3.4858   30.6054   17.6382 N.2         1 PRO      -0.3437
     18 N           0.2292   31.4196   13.9004 N.am        1 PRO      -0.2636
     19 CA          1.0028   32.4439   13.2475 C.3         1 PRO       0.1312
     20 C           2.2064   32.8429   13.9849 C.2         1 PRO       0.2040
     21 O           2.0784   33.2589   15.1352 O.2         1 PRO      -0.3944
     22 CB          0.0947   33.6946   12.9523 C.3         1 PRO      -0.0101
     23 CG         -1.1014   33.4948   11.9598 C.3         1 PRO      -0.0425
     24 CD1        -2.0802   34.7039   12.0104 C.3         1 PRO      -0.0625
     25 CD2        -0.6414   33.2595   10.4896 C.3         1 PRO      -0.0625
     26 N           3.4037   32.6799   13.4185 N.am        1 PRO      -0.2616
     27 CA          4.6985   32.9851   13.9640 C.3         1 PRO       0.1538
     28 C           4.8257   32.7942   15.4139 C.2         1 PRO       0.2045
     29 O           5.3786   33.6436   16.1102 O.2         1 PRO      -0.3944
     30 CB          5.1330   34.3897   13.4519 C.3         1 PRO       0.0843
     31 OG          5.3329   34.3919   12.0387 O.3         1 PRO      -0.3903
     32 N           4.3068   31.7115   15.9840 N.am        1 PRO      -0.2748
     33 C1          4.3004   31.4117   17.3954 C.3         1 PRO       0.0911
     34 C2          3.4034   30.1606   17.7171 C.3         1 PRO       0.0089
     35 C3          2.0071   30.4569   18.1570 C.ar        1 PRO      -0.0406
     36 C4          1.4349   29.8072   19.2815 C.ar        1 PRO      -0.0603
     37 C5          1.2111   31.3621   17.4145 C.ar        1 PRO      -0.0603
     38 C6          0.1042   30.0676   19.6612 C.ar        1 PRO      -0.0686
     39 C7         -0.1138   31.6312   17.8072 C.ar        1 PRO      -0.0686
     40 C8         -0.6753   30.9762   18.9186 C.ar        1 PRO      -0.0687
     41 C9          5.7414   31.2825   17.9588 C.3         1 PRO      -0.0062
     42 N2          6.3509   29.9545   17.6771 N.4         1 PRO       0.2479
     43 C10         7.6358   29.5535   18.3152 C.3         1 PRO       0.0676
     44 C11         8.8747   30.4416   17.9766 C.3         1 PRO       0.0169
     45 C12         8.9559   31.8873   18.5544 C.3         1 PRO       0.0007
     46 SD         10.5069   32.1950   19.4483 S.3         1 PRO      -0.1638
     47 C13         9.8883   31.9123   21.1308 C.3         1 PRO      -0.0181
     48 C           7.5233   29.2313   19.7422 C.2         1 PRO       0.2268
     49 O           7.1844   30.0989   20.5347 O.2         1 PRO      -0.3907
     50 N           7.8208   28.0110   20.1861 N.am        1 PRO      -0.2613
     51 CA          7.9088   27.5658   21.5483 C.3         1 PRO       0.1283
     52 C           6.6941   27.8680   22.3077 C.2         1 PRO       0.2032
     53 O           5.6316   27.3950   21.9156 O.2         1 PRO      -0.3944
     54 CB          9.2476   28.0265   22.1946 C.3         1 PRO      -0.0244
     55 N           6.7152   28.6506   23.3835 N.am        1 PRO      -0.2677
     56 CA          5.6194   28.9858   24.2520 C.3         1 PRO       0.1056
     57 C           5.1748   30.3607   23.9437 C.2         1 PRO       0.0621
     58 O           6.0352   31.2805   23.4486 O.co2       1 PRO      -0.5664
     59 CB          6.0907   28.8242   25.7318 C.3         1 PRO       0.0372
     60 CG          5.0001   28.7619   26.7419 C.2         1 PRO       0.0555
     61 ND1         5.0407   29.2851   27.9796 N.pl3       1 PRO      -0.2623
     62 CD2         3.7825   28.1050   26.6358 C.2         1 PRO      -0.0276
     63 CE1         3.8962   28.9756   28.6037 C.2         1 PRO       0.0875
     64 NE2         3.1076   28.2476   27.7958 N.2         1 PRO      -0.3437
     65 OXT         3.8790   30.7114   24.1053 O.co2       1 PRO      -0.5664
     66 H1          0.7255   24.8300   16.9045 H           1 PRO       0.2035
     67 H2         -0.5972   25.3724   17.7554 H           1 PRO       0.2035
     68 H3          0.3527   27.3888   18.3106 H           1 PRO       0.1099
     69 H4          2.7248   27.6185   18.4456 H           1 PRO       0.0347
     70 H5          3.0128   26.3948   17.1824 H           1 PRO       0.0347
     71 H6          2.4647   25.9723   20.0893 H           1 PRO       0.0320
     72 H7          3.2153   24.8684   18.9117 H           1 PRO       0.0320
     73 H8          1.1666   23.7474   18.7893 H           1 PRO       0.0814
     74 H9          0.3755   25.0081   19.7753 H           1 PRO       0.0814
     75 H10         0.0012   29.0487   16.8597 H           1 PRO       0.1886
     76 H11         0.0999   28.4990   13.9705 H           1 PRO       0.0824
     77 H12        -2.1641   28.3697   14.6880 H           1 PRO       0.0491
     78 H13        -1.9393   29.8246   13.7539 H           1 PRO       0.0491
     79 H14        -2.4031   32.0631   15.0884 H           1 PRO       0.2386
     80 H15        -2.8780   28.6265   17.2549 H           1 PRO       0.0324
     81 H16        -3.6687   32.6441   17.1563 H           1 PRO       0.1149
     82 H17        -0.7169   31.4133   13.6908 H           1 PRO       0.1883
     83 H18         1.3038   32.0277   12.2756 H           1 PRO       0.0800
     84 H19         0.7208   34.5073   12.5662 H           1 PRO       0.0315
     85 H20        -0.3128   34.0289   13.9170 H           1 PRO       0.0315
     86 H21        -1.6750   32.6172   12.2795 H           1 PRO       0.0298
     87 H22        -2.9405   34.5207   11.3630 H           1 PRO       0.0232
     88 H23        -1.5768   35.6158   11.6797 H           1 PRO       0.0232
     89 H24        -2.4504   34.8518   13.0277 H           1 PRO       0.0232
     90 H25        -0.0110   32.3709   10.4147 H           1 PRO       0.0232
     91 H26        -0.0788   34.1229   10.1238 H           1 PRO       0.0232
     92 H27        -1.5126   33.1104    9.8454 H           1 PRO       0.0232
     93 H28         3.4035   32.3799   12.4926 H           1 PRO       0.1884
     94 H29         5.3927   32.2678   13.5159 H           1 PRO       0.0823
     95 H30         6.0735   34.6993   13.9208 H           1 PRO       0.0606
     96 H31         4.3696   35.1302   13.6969 H           1 PRO       0.0606
     97 H32         6.2885   34.2029   11.9187 H           1 PRO       0.2097
     98 H33         3.8502   31.0791   15.4030 H           1 PRO       0.1859
     99 H34         3.8525   32.2658   17.9100 H           1 PRO       0.0632
    100 H35         3.8873   29.5626   18.4962 H           1 PRO       0.0450
    101 H36         3.3467   29.5109   16.8353 H           1 PRO       0.0450
    102 H37         1.9929   29.1422   19.8345 H           1 PRO       0.0557
    103 H38         1.6003   31.8538   16.6032 H           1 PRO       0.0557
    104 H39        -0.2888   29.5945   20.4792 H           1 PRO       0.0599
    105 H40        -0.6741   32.3041   17.2777 H           1 PRO       0.0599
    106 H41        -1.6352   31.1727   19.2104 H           1 PRO       0.0559
    107 H42         5.6943   31.4477   19.0393 H           1 PRO       0.0839
    108 H43         6.3597   32.0640   17.5225 H           1 PRO       0.0839
    109 H44         6.4523   29.8695   16.6595 H           1 PRO       0.2036
    110 H45         5.6697   29.2471   17.9608 H           1 PRO       0.2036
    111 H46         7.8572   28.6081   17.8003 H           1 PRO       0.1099
    112 H47         8.9229   30.5283   16.8892 H           1 PRO       0.0354
    113 H48         9.7634   29.8769   18.2778 H           1 PRO       0.0354
    114 H49         8.1104   32.1214   19.2026 H           1 PRO       0.0380
    115 H50         8.9284   32.6033   17.7296 H           1 PRO       0.0380
    116 H51        10.7285   31.9669   21.8351 H           1 PRO       0.0340
    117 H52         9.4193   30.9239   21.2020 H           1 PRO       0.0340
    118 H53         9.1542   32.6855   21.3898 H           1 PRO       0.0340
    119 H54         8.0559   27.3520   19.5140 H           1 PRO       0.1884
    120 H55         7.9696   26.4759   21.5061 H           1 PRO       0.0797
    121 H56         9.3446   27.6049   23.1985 H           1 PRO       0.0277
    122 H57         9.3054   29.1153   22.2594 H           1 PRO       0.0277
    123 H58        10.0880   27.6702   21.5932 H           1 PRO       0.0277
    124 H59         7.5623   29.0629   23.6204 H           1 PRO       0.1877
    125 H60         4.7763   28.2991   24.1003 H           1 PRO       0.0750
    126 H61         6.7695   29.6432   26.0011 H           1 PRO       0.0484
    127 H62         6.6552   27.8893   25.8206 H           1 PRO       0.0484
    128 H63         5.7831   29.7630   28.3942 H           1 PRO       0.2386
    129 H64         3.4457   27.5867   25.8215 H           1 PRO       0.0324
    130 H65         3.6652   29.2363   29.5650 H           1 PRO       0.1149
@<TRIPOS>BOND
     1     1     2   1
     2     1     7   1
     3     2     3   1
     4     2     5   1
     5     3     4   2
     6     3     8  am
     7     5     6   1
     8     6     7   1
     9     8     9   1
    10     9    10   1
    11     9    12   1
    12    10    11   2
    13    10    18  am
    14    12    13   1
    15    13    14   1
    16    13    15   2
    17    14    16   1
    18    15    17   1
    19    16    17   2
    20    18    19   1
    21    19    20   1
    22    19    22   1
    23    20    21   2
    24    20    26  am
    25    22    23   1
    26    23    24   1
    27    23    25   1
    28    26    27   1
    29    27    28   1
    30    27    30   1
    31    28    29   2
    32    28    32  am
    33    30    31   1
    34    32    33   1
    35    33    34   1
    36    33    41   1
    37    34    35   1
    38    35    36  ar
    39    35    37  ar
    40    36    38  ar
    41    37    39  ar
    42    38    40  ar
    43    39    40  ar
    44    41    42   1
    45    42    43   1
    46    43    44   1
    47    43    48   1
    48    44    45   1
    49    45    46   1
    50    46    47   1
    51    48    49   2
    52    48    50  am
    53    50    51   1
    54    51    52   1
    55    51    54   1
    56    52    53   2
    57    52    55  am
    58    55    56   1
    59    56    57   1
    60    56    59   1
    61    57    58  ar
    62    57    65  ar
    63    59    60   1
    64    60    61   1
    65    60    62   2
    66    61    63   1
    67    62    64   1
    68    63    64   2
    69     1    66   1
    70     1    67   1
    71     2    68   1
    72     5    69   1
    73     5    70   1
    74     6    71   1
    75     6    72   1
    76     7    73   1
    77     7    74   1
    78     8    75   1
    79     9    76   1
    80    12    77   1
    81    12    78   1
    82    14    79   1
    83    15    80   1
    84    16    81   1
    85    18    82   1
    86    19    83   1
    87    22    84   1
    88    22    85   1
    89    23    86   1
    90    24    87   1
    91    24    88   1
    92    24    89   1
    93    25    90   1
    94    25    91   1
    95    25    92   1
    96    26    93   1
    97    27    94   1
    98    30    95   1
    99    30    96   1
   100    31    97   1
   101    32    98   1
   102    33    99   1
   103    34   100   1
   104    34   101   1
   105    36   102   1
   106    37   103   1
   107    38   104   1
   108    39   105   1
   109    40   106   1
   110    41   107   1
   111    41   108   1
   112    42   109   1
   113    42   110   1
   114    43   111   1
   115    44   112   1
   116    44   113   1
   117    45   114   1
   118    45   115   1
   119    47   116   1
   120    47   117   1
   121    47   118   1
   122    50   119   1
   123    51   120   1
   124    54   121   1
   125    54   122   1
   126    54   123   1
   127    55   124   1
   128    56   125   1
   129    59   126   1
   130    59   127   1
   131    61   128   1
   132    62   129   1
   133    63   130   1
@<TRIPOS>SUBSTRUCTURE
     1  PRO      2

