@<TRIPOS>MOLECULE
3utu_ligand_035
    82    85
SMALL
GAST_HUCK
****
This file was generated by PARSER (from files_GN.cpp)

@<TRIPOS>ATOM
      1 S8         20.2815  -17.4210   24.4543 S.o2        1 MOL       0.0657
      2 CL         19.5833  -21.0096   20.4906 Cl          1 MOL      -0.0788
      3 C35        20.8269  -18.1147   22.9497 C.ar        1 MOL       0.0977
      4 C10        22.8190  -20.8231   19.2709 C.3         1 MOL       0.0596
      5 O9         21.9762  -19.6527   19.2095 O.3         1 MOL      -0.3203
      6 C5         21.5941  -19.1912   20.4379 C.ar        1 MOL       0.1052
      7 O1         19.5535  -18.5205   25.3537 O.2         1 MOL      -0.1516
      8 O10        21.5487  -16.8923   25.2669 O.2         1 MOL      -0.1516
      9 C7         21.8955  -17.5467   22.2252 C.ar        1 MOL      -0.0438
     10 C3         20.1297  -19.2117   22.3976 C.ar        1 MOL      -0.0300
     11 C6         22.2780  -18.0805   20.9833 C.ar        1 MOL      -0.0306
     12 C4         20.4963  -19.7412   21.1426 C.ar        1 MOL       0.0696
     13 C13        18.0116  -14.6400   22.9132 C.2         1 MOL       0.2048
     14 N11        19.2465  -16.0952   24.2566 N.am        1 MOL      -0.2244
     15 O14        17.1904  -14.0023   23.5661 O.2         1 MOL      -0.3945
     16 C15        13.8417  -16.7799   21.6389 C.3         1 MOL       0.0687
     17 C31        13.1833  -18.1175   21.6536 C.ar        1 MOL      -0.0116
     18 C32        12.1357  -18.3674   20.7338 C.ar        1 MOL      -0.0467
     19 C33        11.4776  -19.6111   20.6984 C.ar        1 MOL      -0.0334
     20 C44        11.8482  -20.6354   21.5954 C.ar        1 MOL       0.0883
     21 C8         12.8723  -20.3923   22.5355 C.ar        1 MOL      -0.0334
     22 C9         13.5235  -19.1484   22.5677 C.ar        1 MOL      -0.0467
     23 C40        11.2683  -21.7975   21.5563 C.1         1 MOL       0.0934
     24 N63        10.7551  -22.8262   21.5158 N.1         1 MOL      -0.3338
     25 C45        18.2001  -16.0495   23.2844 C.3         1 MOL       0.1430
     26 C12        16.9304  -16.7960   23.8138 C.3         1 MOL       0.0742
     27 C46        16.0063  -17.1652   22.7554 C.2         1 MOL       0.1821
     28 O22        16.2971  -18.1009   22.0203 O.2         1 MOL      -0.3967
     29 N14        14.8536  -16.5289   22.6197 N.am        1 MOL      -0.2739
     30 N15        18.7335  -13.9915   21.9774 N.am        1 MOL      -0.2500
     31 C16        18.5482  -12.5953   21.6527 C.3         1 MOL       0.1338
     32 C17        17.3003  -12.3706   20.9239 C.2         1 MOL       0.2037
     33 O18        16.8817  -13.2577   20.1888 O.2         1 MOL      -0.3944
     34 C34        19.8024  -12.2026   20.8355 C.3         1 MOL      -0.0104
     35 C1         20.2814  -13.5208   20.2187 C.3         1 MOL      -0.0281
     36 C2         19.8019  -14.5877   21.2189 C.3         1 MOL       0.0369
     37 N19        16.6585  -11.2159   21.0502 N.am        1 MOL      -0.2737
     38 C20        15.4124  -10.8612   20.4452 C.3         1 MOL       0.0645
     39 C21        14.3531  -10.8559   21.4823 C.ar        1 MOL      -0.0210
     40 C26        13.9270   -9.6439   22.0690 C.ar        1 MOL      -0.0584
     41 C25        12.9060   -9.6359   23.0367 C.ar        1 MOL      -0.0633
     42 C24        12.2738  -10.8353   23.4650 C.ar        1 MOL       0.0188
     43 C27        11.2167  -10.8193   24.3921 C.cat       1 MOL       0.2318
     44 N29        10.7276   -9.7382   24.8684 N.pl3       1 MOL      -0.2729
     45 N28        10.6500  -11.8810   24.8253 N.pl3       1 MOL      -0.2729
     46 C23        12.7378  -12.0472   22.8850 C.ar        1 MOL      -0.0633
     47 C22        13.7595  -12.0592   21.9162 C.ar        1 MOL      -0.0584
     48 H1         23.0920  -21.0941   18.2503 H           1 MOL       0.0578
     49 H2         22.2919  -21.6726   19.7169 H           1 MOL       0.0578
     50 H3         23.7385  -20.6293   19.8336 H           1 MOL       0.0578
     51 H4         22.3953  -16.7352   22.5962 H           1 MOL       0.0610
     52 H5         19.3348  -19.6205   22.8971 H           1 MOL       0.0614
     53 H6         23.0438  -17.6488   20.4651 H           1 MOL       0.0542
     54 H7         19.2259  -15.4451   24.9820 H           1 MOL       0.1706
     55 H8         13.0572  -16.0255   21.7901 H           1 MOL       0.0704
     56 H9         14.2724  -16.6024   20.6477 H           1 MOL       0.0704
     57 H10        11.8464  -17.6433   20.0673 H           1 MOL       0.0584
     58 H11        10.7282  -19.7609   20.0159 H           1 MOL       0.0701
     59 H12        13.1593  -21.1140   23.2042 H           1 MOL       0.0701
     60 H13        14.2585  -19.0003   23.2627 H           1 MOL       0.0584
     61 H14        18.5265  -16.6028   22.3983 H           1 MOL       0.0779
     62 H15        16.4369  -16.1751   24.5708 H           1 MOL       0.0547
     63 H16        17.2321  -17.7158   24.3168 H           1 MOL       0.0547
     64 H17        14.6838  -15.7966   23.2288 H           1 MOL       0.1881
     65 H18        18.5637  -12.0022   22.5756 H           1 MOL       0.0802
     66 H19        20.5798  -11.8201   21.5045 H           1 MOL       0.0313
     67 H20        19.6062  -11.4423   20.0712 H           1 MOL       0.0313
     68 H21        21.3655  -13.5347   20.0903 H           1 MOL       0.0287
     69 H22        19.8054  -13.6652   19.2443 H           1 MOL       0.0287
     70 H23        19.4676  -15.4665   20.6607 H           1 MOL       0.0524
     71 H24        20.6186  -14.8701   21.8905 H           1 MOL       0.0524
     72 H25        17.0821  -10.5267   21.5915 H           1 MOL       0.1878
     73 H26        15.1323  -11.5307   19.6261 H           1 MOL       0.0683
     74 H27        15.5161   -9.8636   20.0132 H           1 MOL       0.0683
     75 H28        14.3543   -8.7564   21.7905 H           1 MOL       0.0557
     76 H29        12.6399   -8.7306   23.4301 H           1 MOL       0.0599
     77 H30        10.0122   -9.7727   25.4657 H           1 MOL       0.3180
     78 H31        11.0571   -8.9066   24.6030 H           1 MOL       0.3180
     79 H32        10.9239  -12.7311   24.5448 H           1 MOL       0.3180
     80 H33         9.9324  -11.8131   25.4201 H           1 MOL       0.3180
     81 H34        12.3238  -12.9452   23.1401 H           1 MOL       0.0599
     82 H35        14.0580  -12.9531   21.5196 H           1 MOL       0.0557
@<TRIPOS>BOND
     1     1     3   1
     2     1     7   2
     3     1     8   2
     4    14     1  am
     5    12     2   1
     6     3     9  ar
     7     3    10  ar
     8     5     4   1
     9     6     5   1
    10    11     6  ar
    11    12     6  ar
    12     9    11  ar
    13    10    12  ar
    14    13    15   2
    15    25    13   1
    16    13    30  am
    17    25    14   1
    18    16    17   1
    19    29    16   1
    20    17    18  ar
    21    17    22  ar
    22    18    19  ar
    23    19    20  ar
    24    21    20  ar
    25    20    23   1
    26    22    21  ar
    27    23    24   3
    28    26    25   1
    29    27    26   1
    30    27    28   2
    31    27    29  am
    32    30    31   1
    33    30    36   1
    34    31    32   1
    35    31    34   1
    36    32    33   2
    37    32    37  am
    38    34    35   1
    39    35    36   1
    40    37    38   1
    41    38    39   1
    42    39    40  ar
    43    39    47  ar
    44    40    41  ar
    45    41    42  ar
    46    42    43   1
    47    42    46  ar
    48    43    44  ar
    49    43    45  ar
    50    46    47  ar
    51     4    48   1
    52     4    49   1
    53     4    50   1
    54     9    51   1
    55    10    52   1
    56    11    53   1
    57    14    54   1
    58    16    55   1
    59    16    56   1
    60    18    57   1
    61    19    58   1
    62    21    59   1
    63    22    60   1
    64    25    61   1
    65    26    62   1
    66    26    63   1
    67    29    64   1
    68    31    65   1
    69    34    66   1
    70    34    67   1
    71    35    68   1
    72    35    69   1
    73    36    70   1
    74    36    71   1
    75    37    72   1
    76    38    73   1
    77    38    74   1
    78    40    75   1
    79    41    76   1
    80    44    77   1
    81    44    78   1
    82    45    79   1
    83    45    80   1
    84    46    81   1
    85    47    82   1
@<TRIPOS>SUBSTRUCTURE
     1  MOL      2

