@<TRIPOS>MOLECULE
3utu_ligand_080
    82    85
SMALL
GAST_HUCK
****
This file was generated by PARSER (from files_GN.cpp)

@<TRIPOS>ATOM
      1 S8         17.0908  -16.5371   22.3703 S.o2        1 MOL       0.0657
      2 CL         17.6586  -19.0477   17.6306 Cl          1 MOL      -0.0788
      3 C35        16.6528  -16.6990   20.6970 C.ar        1 MOL       0.0977
      4 C10        16.6100  -16.1178   15.7653 C.3         1 MOL       0.0596
      5 O9         15.7653  -16.9306   16.5993 O.3         1 MOL      -0.3203
      6 C5         16.0790  -16.8603   17.9307 C.ar        1 MOL       0.1052
      7 O1         16.1022  -17.4742   23.1928 O.2         1 MOL      -0.1516
      8 O10        18.4976  -17.2221   22.6955 O.2         1 MOL      -0.1516
      9 C7         15.7460  -15.7959   20.1070 C.ar        1 MOL      -0.0438
     10 C3         17.2295  -17.7157   19.9100 C.ar        1 MOL      -0.0300
     11 C6         15.4634  -15.8749   18.7311 C.ar        1 MOL      -0.0306
     12 C4         16.9457  -17.8035   18.5321 C.ar        1 MOL       0.0696
     13 C13        19.0839  -14.0103   22.4737 C.2         1 MOL       0.2048
     14 N11        16.8762  -14.9916   23.0206 N.am        1 MOL      -0.2244
     15 O14        19.8620  -14.9128   22.7692 O.2         1 MOL      -0.3945
     16 C15        20.6434  -16.1542   26.3644 C.3         1 MOL       0.0687
     17 C31        21.2063  -16.8800   25.1965 C.ar        1 MOL      -0.0116
     18 C32        22.2386  -16.2885   24.4309 C.ar        1 MOL      -0.0467
     19 C33        22.7558  -16.9350   23.2933 C.ar        1 MOL      -0.0334
     20 C44        22.2445  -18.1881   22.8968 C.ar        1 MOL       0.0883
     21 C8         21.2220  -18.7924   23.6606 C.ar        1 MOL      -0.0334
     22 C9         20.7124  -18.1451   24.8018 C.ar        1 MOL      -0.0467
     23 C40        22.7087  -18.7760   21.8320 C.1         1 MOL       0.0934
     24 N63        23.1208  -19.2944   20.8892 N.1         1 MOL      -0.3338
     25 C45        17.8459  -13.9623   23.2752 C.3         1 MOL       0.1430
     26 C12        18.1065  -13.8405   24.8115 C.3         1 MOL       0.0742
     27 C46        18.6676  -15.0271   25.4405 C.2         1 MOL       0.1821
     28 O22        17.9904  -16.0467   25.4892 O.2         1 MOL      -0.3967
     29 N14        19.9037  -15.0108   25.9238 N.am        1 MOL      -0.2739
     30 N15        19.4646  -13.1546   21.5043 N.am        1 MOL      -0.2500
     31 C16        18.7711  -11.9539   21.1048 C.3         1 MOL       0.1338
     32 C17        17.4927  -12.1939   20.4446 C.2         1 MOL       0.2037
     33 O18        17.4083  -13.0986   19.6223 O.2         1 MOL      -0.3944
     34 C34        19.7583  -11.1994   20.1751 C.3         1 MOL      -0.0104
     35 C1         20.7073  -12.2838   19.6535 C.3         1 MOL      -0.0281
     36 C2         20.7018  -13.3238   20.7815 C.3         1 MOL       0.0369
     37 N19        16.4826  -11.3614   20.6740 N.am        1 MOL      -0.2737
     38 C20        15.1600  -11.4358   20.1351 C.3         1 MOL       0.0645
     39 C21        14.1639  -11.3344   21.2332 C.ar        1 MOL      -0.0210
     40 C26        14.0064  -10.1224   21.9404 C.ar        1 MOL      -0.0584
     41 C25        13.0309   -9.9948   22.9458 C.ar        1 MOL      -0.0633
     42 C24        12.1764  -11.0731   23.2924 C.ar        1 MOL       0.0188
     43 C27        11.1579  -10.9321   24.2526 C.cat       1 MOL       0.2318
     44 N29        10.7213   -9.7845   24.6318 N.pl3       1 MOL      -0.2729
     45 N28        10.5740  -11.9231   24.7976 N.pl3       1 MOL      -0.2729
     46 C23        12.3711  -12.2976   22.5985 C.ar        1 MOL      -0.0633
     47 C22        13.3401  -12.4247   21.5857 C.ar        1 MOL      -0.0584
     48 H1         16.2538  -16.2068   14.7395 H           1 MOL       0.0578
     49 H2         17.6460  -16.4622   15.7970 H           1 MOL       0.0578
     50 H3         16.5655  -15.0638   16.0517 H           1 MOL       0.0578
     51 H4         15.2977  -15.0653   20.6637 H           1 MOL       0.0610
     52 H5         17.8642  -18.3946   20.3358 H           1 MOL       0.0614
     53 H6         14.8194  -15.2028   18.3082 H           1 MOL       0.0542
     54 H7         15.9892  -14.8311   23.3811 H           1 MOL       0.1706
     55 H8         21.4687  -15.8152   26.9946 H           1 MOL       0.0704
     56 H9         20.0121  -16.7950   26.9872 H           1 MOL       0.0704
     57 H10        22.6175  -15.3765   24.6950 H           1 MOL       0.0584
     58 H11        23.5007  -16.4769   22.7585 H           1 MOL       0.0701
     59 H12        20.8309  -19.6998   23.3870 H           1 MOL       0.0701
     60 H13        19.9613  -18.5940   25.3309 H           1 MOL       0.0584
     61 H14        17.3066  -13.0490   23.0224 H           1 MOL       0.0779
     62 H15        17.1611  -13.6084   25.3107 H           1 MOL       0.0547
     63 H16        18.7631  -12.9806   24.9765 H           1 MOL       0.0547
     64 H17        20.3842  -14.1675   25.8898 H           1 MOL       0.1881
     65 H18        18.6154  -11.3318   21.9950 H           1 MOL       0.0802
     66 H19        20.3274  -10.4608   20.7486 H           1 MOL       0.0313
     67 H20        19.2665  -10.6818   19.3479 H           1 MOL       0.0313
     68 H21        21.7131  -11.8983   19.4559 H           1 MOL       0.0287
     69 H22        20.3075  -12.7233   18.7337 H           1 MOL       0.0287
     70 H23        20.7830  -14.3237   20.3453 H           1 MOL       0.0524
     71 H24        21.5501  -13.1521   21.4514 H           1 MOL       0.0524
     72 H25        16.6624  -10.6091   21.2652 H           1 MOL       0.1878
     73 H26        15.0097  -12.3494   19.5540 H           1 MOL       0.0683
     74 H27        15.0176  -10.5958   19.4509 H           1 MOL       0.0683
     75 H28        14.5955   -9.3155   21.7171 H           1 MOL       0.0557
     76 H29        12.9614   -9.0942   23.4264 H           1 MOL       0.0599
     77 H30        10.0232   -9.7352   25.2515 H           1 MOL       0.3180
     78 H31        11.0695   -8.9973   24.2728 H           1 MOL       0.3180
     79 H32        10.8152  -12.8024   24.5869 H           1 MOL       0.3180
     80 H33         9.8793  -11.7805   25.4088 H           1 MOL       0.3180
     81 H34        11.7850  -13.1115   22.7944 H           1 MOL       0.0599
     82 H35        13.4297  -13.3188   21.0984 H           1 MOL       0.0557
@<TRIPOS>BOND
     1     1     3   1
     2     1     7   2
     3     1     8   2
     4    14     1  am
     5    12     2   1
     6     3     9  ar
     7     3    10  ar
     8     5     4   1
     9     6     5   1
    10    11     6  ar
    11    12     6  ar
    12     9    11  ar
    13    10    12  ar
    14    13    15   2
    15    25    13   1
    16    13    30  am
    17    25    14   1
    18    16    17   1
    19    29    16   1
    20    17    18  ar
    21    17    22  ar
    22    18    19  ar
    23    19    20  ar
    24    21    20  ar
    25    20    23   1
    26    22    21  ar
    27    23    24   3
    28    26    25   1
    29    27    26   1
    30    27    28   2
    31    27    29  am
    32    30    31   1
    33    30    36   1
    34    31    32   1
    35    31    34   1
    36    32    33   2
    37    32    37  am
    38    34    35   1
    39    35    36   1
    40    37    38   1
    41    38    39   1
    42    39    40  ar
    43    39    47  ar
    44    40    41  ar
    45    41    42  ar
    46    42    43   1
    47    42    46  ar
    48    43    44  ar
    49    43    45  ar
    50    46    47  ar
    51     4    48   1
    52     4    49   1
    53     4    50   1
    54     9    51   1
    55    10    52   1
    56    11    53   1
    57    14    54   1
    58    16    55   1
    59    16    56   1
    60    18    57   1
    61    19    58   1
    62    21    59   1
    63    22    60   1
    64    25    61   1
    65    26    62   1
    66    26    63   1
    67    29    64   1
    68    31    65   1
    69    34    66   1
    70    34    67   1
    71    35    68   1
    72    35    69   1
    73    36    70   1
    74    36    71   1
    75    37    72   1
    76    38    73   1
    77    38    74   1
    78    40    75   1
    79    41    76   1
    80    44    77   1
    81    44    78   1
    82    45    79   1
    83    45    80   1
    84    46    81   1
    85    47    82   1
@<TRIPOS>SUBSTRUCTURE
     1  MOL      2

