@<TRIPOS>MOLECULE
3utu_ligand_031
    82    85
SMALL
GAST_HUCK
****
This file was generated by PARSER (from files_GN.cpp)

@<TRIPOS>ATOM
      1 S8         19.4875  -18.6064   21.4205 S.o2        1 MOL       0.0657
      2 CL         23.7665  -21.7842   20.4868 Cl          1 MOL      -0.0788
      3 C35        21.0980  -18.8331   20.7967 C.ar        1 MOL       0.0977
      4 C10        25.0815  -19.7005   17.9384 C.3         1 MOL       0.0596
      5 O9         25.0028  -19.2897   19.3156 O.3         1 MOL      -0.3203
      6 C5         23.7206  -19.1687   19.7810 C.ar        1 MOL       0.1052
      7 O1         18.5688  -18.4715   20.1349 O.2         1 MOL      -0.1516
      8 O10        18.9944  -19.8615   22.2578 O.2         1 MOL      -0.1516
      9 C7         21.7894  -17.7391   20.2313 C.ar        1 MOL      -0.0438
     10 C3         21.7260  -20.0939   20.8531 C.ar        1 MOL      -0.0300
     11 C6         23.0946  -17.9055   19.7397 C.ar        1 MOL      -0.0306
     12 C4         23.0354  -20.2631   20.3579 C.ar        1 MOL       0.0696
     13 C13        17.9909  -15.7701   21.1686 C.2         1 MOL       0.2048
     14 N11        19.4849  -17.2401   22.4248 N.am        1 MOL      -0.2244
     15 O14        18.8026  -15.2163   20.4366 O.2         1 MOL      -0.3945
     16 C15        22.2837  -13.0308   23.7351 C.3         1 MOL       0.0687
     17 C31        23.3011  -14.0259   24.1782 C.ar        1 MOL      -0.0116
     18 C32        23.0816  -14.8232   25.3269 C.ar        1 MOL      -0.0467
     19 C33        24.0387  -15.7606   25.7546 C.ar        1 MOL      -0.0334
     20 C44        25.2586  -15.8927   25.0632 C.ar        1 MOL       0.0883
     21 C8         25.5057  -15.0841   23.9341 C.ar        1 MOL      -0.0334
     22 C9         24.5323  -14.1653   23.4932 C.ar        1 MOL      -0.0467
     23 C40        26.1503  -16.7589   25.4635 C.1         1 MOL       0.0934
     24 N63        26.9404  -17.5131   25.8147 N.1         1 MOL      -0.3338
     25 C45        18.5117  -16.1880   22.4817 C.3         1 MOL       0.1430
     26 C12        19.0887  -14.9833   23.3170 C.3         1 MOL       0.0742
     27 C46        20.4218  -14.4852   23.0106 C.2         1 MOL       0.1821
     28 O22        21.0961  -14.9743   22.1138 O.2         1 MOL      -0.3967
     29 N14        20.9354  -13.5249   23.7712 N.am        1 MOL      -0.2739
     30 N15        16.7611  -16.0421   20.6889 N.am        1 MOL      -0.2500
     31 C16        16.3455  -15.7349   19.3379 C.3         1 MOL       0.1338
     32 C17        16.0964  -14.3013   19.1442 C.2         1 MOL       0.2037
     33 O18        16.9911  -13.6014   18.6913 O.2         1 MOL      -0.3944
     34 C34        15.1339  -16.6713   19.0879 C.3         1 MOL      -0.0104
     35 C1         14.5549  -16.9416   20.4839 C.3         1 MOL      -0.0281
     36 C2         15.7559  -16.7585   21.4236 C.3         1 MOL       0.0369
     37 N19        14.9452  -13.7531   19.5039 N.am        1 MOL      -0.2737
     38 C20        14.5788  -12.3705   19.5047 C.3         1 MOL       0.0645
     39 C21        13.6164  -12.0277   20.5873 C.ar        1 MOL      -0.0210
     40 C26        13.5597  -12.7594   21.7970 C.ar        1 MOL      -0.0584
     41 C25        12.6357  -12.4268   22.8006 C.ar        1 MOL      -0.0633
     42 C24        11.7652  -11.3201   22.6638 C.ar        1 MOL       0.0188
     43 C27        10.8548  -10.9962   23.6828 C.cat       1 MOL       0.2318
     44 N29        10.3162  -11.9047   24.3945 N.pl3       1 MOL      -0.2729
     45 N28        10.5287   -9.7945   23.9396 N.pl3       1 MOL      -0.2729
     46 C23        11.8499  -10.5629   21.4692 C.ar        1 MOL      -0.0633
     47 C22        12.7512  -10.9165   20.4435 C.ar        1 MOL      -0.0584
     48 H1         26.1329  -19.7280   17.6506 H           1 MOL       0.0578
     49 H2         24.5702  -18.9981   17.2767 H           1 MOL       0.0578
     50 H3         24.6641  -20.7002   17.7986 H           1 MOL       0.0578
     51 H4         21.3477  -16.8216   20.1651 H           1 MOL       0.0610
     52 H5         21.2332  -20.8928   21.2548 H           1 MOL       0.0614
     53 H6         23.5897  -17.1042   19.3450 H           1 MOL       0.0542
     54 H7         20.0785  -17.2988   23.1868 H           1 MOL       0.1706
     55 H8         22.5008  -12.6594   22.7289 H           1 MOL       0.0704
     56 H9         22.3441  -12.1785   24.4153 H           1 MOL       0.0704
     57 H10        22.2089  -14.7408   25.8540 H           1 MOL       0.0584
     58 H11        23.8367  -16.3305   26.5840 H           1 MOL       0.0701
     59 H12        26.3909  -15.1569   23.4196 H           1 MOL       0.0701
     60 H13        24.7325  -13.5903   22.6710 H           1 MOL       0.0584
     61 H14        17.7060  -16.5821   23.1010 H           1 MOL       0.0779
     62 H15        19.1119  -15.2956   24.3656 H           1 MOL       0.0547
     63 H16        18.3975  -14.1391   23.2567 H           1 MOL       0.0547
     64 H17        20.3587  -13.1481   24.4553 H           1 MOL       0.1881
     65 H18        17.1286  -16.0520   18.6418 H           1 MOL       0.0802
     66 H19        15.4802  -17.6120   18.6564 H           1 MOL       0.0313
     67 H20        14.3868  -16.2341   18.4168 H           1 MOL       0.0313
     68 H21        14.1423  -17.9557   20.5540 H           1 MOL       0.0287
     69 H22        13.7729  -16.2256   20.7261 H           1 MOL       0.0287
     70 H23        15.4501  -16.1983   22.3162 H           1 MOL       0.0524
     71 H24        16.1364  -17.7388   21.7190 H           1 MOL       0.0524
     72 H25        14.2562  -14.3574   19.8062 H           1 MOL       0.1878
     73 H26        14.1321  -12.1581   18.5292 H           1 MOL       0.0683
     74 H27        15.4578  -11.7277   19.6216 H           1 MOL       0.0683
     75 H28        14.1872  -13.5495   21.9625 H           1 MOL       0.0557
     76 H29        12.6298  -13.0009   23.6480 H           1 MOL       0.0599
     77 H30         9.7025  -11.6785   25.0659 H           1 MOL       0.3180
     78 H31        10.4972  -12.8092   24.2375 H           1 MOL       0.3180
     79 H32        10.9016   -9.0787   23.4658 H           1 MOL       0.3180
     80 H33         9.9167   -9.6171   24.6358 H           1 MOL       0.3180
     81 H34        11.2334   -9.7595   21.3139 H           1 MOL       0.0599
     82 H35        12.7694  -10.3555   19.5882 H           1 MOL       0.0557
@<TRIPOS>BOND
     1     1     3   1
     2     1     7   2
     3     1     8   2
     4    14     1  am
     5    12     2   1
     6     3     9  ar
     7     3    10  ar
     8     5     4   1
     9     6     5   1
    10    11     6  ar
    11    12     6  ar
    12     9    11  ar
    13    10    12  ar
    14    13    15   2
    15    25    13   1
    16    13    30  am
    17    25    14   1
    18    16    17   1
    19    29    16   1
    20    17    18  ar
    21    17    22  ar
    22    18    19  ar
    23    19    20  ar
    24    21    20  ar
    25    20    23   1
    26    22    21  ar
    27    23    24   3
    28    26    25   1
    29    27    26   1
    30    27    28   2
    31    27    29  am
    32    30    31   1
    33    30    36   1
    34    31    32   1
    35    31    34   1
    36    32    33   2
    37    32    37  am
    38    34    35   1
    39    35    36   1
    40    37    38   1
    41    38    39   1
    42    39    40  ar
    43    39    47  ar
    44    40    41  ar
    45    41    42  ar
    46    42    43   1
    47    42    46  ar
    48    43    44  ar
    49    43    45  ar
    50    46    47  ar
    51     4    48   1
    52     4    49   1
    53     4    50   1
    54     9    51   1
    55    10    52   1
    56    11    53   1
    57    14    54   1
    58    16    55   1
    59    16    56   1
    60    18    57   1
    61    19    58   1
    62    21    59   1
    63    22    60   1
    64    25    61   1
    65    26    62   1
    66    26    63   1
    67    29    64   1
    68    31    65   1
    69    34    66   1
    70    34    67   1
    71    35    68   1
    72    35    69   1
    73    36    70   1
    74    36    71   1
    75    37    72   1
    76    38    73   1
    77    38    74   1
    78    40    75   1
    79    41    76   1
    80    44    77   1
    81    44    78   1
    82    45    79   1
    83    45    80   1
    84    46    81   1
    85    47    82   1
@<TRIPOS>SUBSTRUCTURE
     1  MOL      2

