@<TRIPOS>MOLECULE
3utu_ligand_000
    82    85
SMALL
GAST_HUCK
****
This file was generated by PARSER (from files_GN.cpp)

@<TRIPOS>ATOM
      1 S8         17.0772  -16.2413   21.8501 S.o2        1 MOL       0.0657
      2 CL         13.1176  -19.7613   22.9606 Cl          1 MOL      -0.0788
      3 C35        15.6105  -17.0605   21.3818 C.ar        1 MOL       0.0977
      4 C10        11.0135  -18.7617   20.2455 C.3         1 MOL       0.0596
      5 O9         12.3183  -19.3424   20.1009 O.3         1 MOL      -0.3203
      6 C5         13.3375  -18.5448   20.5501 C.ar        1 MOL       0.1052
      7 O1         18.0344  -17.2802   22.5832 O.2         1 MOL      -0.1516
      8 O10        17.7919  -15.7584   20.5144 O.2         1 MOL      -0.1516
      9 C7         15.0948  -16.9122   20.0759 C.ar        1 MOL      -0.0438
     10 C3         14.9607  -17.9354   22.2777 C.ar        1 MOL      -0.0300
     11 C6         13.9745  -17.6537   19.6636 C.ar        1 MOL      -0.0306
     12 C4         13.8370  -18.6832   21.8662 C.ar        1 MOL       0.0696
     13 C13        19.0574  -14.0093   22.4754 C.2         1 MOL       0.2048
     14 N11        16.8106  -14.9041   22.8569 N.am        1 MOL      -0.2244
     15 O14        19.7873  -14.9485   22.7923 O.2         1 MOL      -0.3945
     16 C15        20.7215  -12.7277   27.0543 C.3         1 MOL       0.0687
     17 C31        21.8865  -13.2254   26.2712 C.ar        1 MOL      -0.0116
     18 C32        22.5649  -12.4007   25.3433 C.ar        1 MOL      -0.0467
     19 C33        23.6326  -12.9036   24.5758 C.ar        1 MOL      -0.0334
     20 C44        24.0301  -14.2502   24.7096 C.ar        1 MOL       0.0883
     21 C8         23.3610  -15.0820   25.6327 C.ar        1 MOL      -0.0334
     22 C9         22.3013  -14.5727   26.4037 C.ar        1 MOL      -0.0467
     23 C40        24.9975  -14.7303   23.9808 C.1         1 MOL       0.0934
     24 N63        25.8446  -15.1597   23.3351 N.1         1 MOL      -0.3338
     25 C45        17.7858  -13.9129   23.2282 C.3         1 MOL       0.1430
     26 C12        17.9908  -13.9412   24.7804 C.3         1 MOL       0.0742
     27 C46        19.0561  -13.0852   25.2993 C.2         1 MOL       0.1821
     28 O22        19.5766  -12.2397   24.5759 O.2         1 MOL      -0.3967
     29 N14        19.5165  -13.2863   26.5278 N.am        1 MOL      -0.2739
     30 N15        19.4586  -13.2035   21.4759 N.am        1 MOL      -0.2500
     31 C16        18.8018  -11.9947   21.0411 C.3         1 MOL       0.1338
     32 C17        17.4863  -12.2090   20.4412 C.2         1 MOL       0.2037
     33 O18        17.3296  -13.1587   19.6824 O.2         1 MOL      -0.3944
     34 C34        19.7970  -11.3371   20.0515 C.3         1 MOL      -0.0104
     35 C1         20.6634  -12.4929   19.5463 C.3         1 MOL      -0.0281
     36 C2         20.6586  -13.4703   20.7287 C.3         1 MOL       0.0369
     37 N19        16.5117  -11.3362   20.6779 N.am        1 MOL      -0.2737
     38 C20        15.1792  -11.3677   20.1597 C.3         1 MOL       0.0645
     39 C21        14.2021  -11.2746   21.2747 C.ar        1 MOL      -0.0210
     40 C26        14.0167  -10.0548   21.9634 C.ar        1 MOL      -0.0584
     41 C25        13.0489   -9.9385   22.9787 C.ar        1 MOL      -0.0633
     42 C24        12.2291  -11.0368   23.3547 C.ar        1 MOL       0.0188
     43 C27        11.2122  -10.9030   24.3203 C.cat       1 MOL       0.2318
     44 N29        10.7268   -9.7737   24.6671 N.pl3       1 MOL      -0.2729
     45 N28        10.6740  -11.9059   24.9083 N.pl3       1 MOL      -0.2729
     46 C23        12.4585  -12.2672   22.6820 C.ar        1 MOL      -0.0633
     47 C22        13.4179  -12.3829   21.6598 C.ar        1 MOL      -0.0584
     48 H1         10.2798  -19.5139   19.9570 H           1 MOL       0.0578
     49 H2         10.8922  -17.8953   19.5890 H           1 MOL       0.0578
     50 H3         10.8141  -18.4673   21.2791 H           1 MOL       0.0578
     51 H4         15.5488  -16.2891   19.4039 H           1 MOL       0.0610
     52 H5         15.3213  -18.0567   23.2267 H           1 MOL       0.0614
     53 H6         13.6301  -17.5544   18.7026 H           1 MOL       0.0542
     54 H7         15.9914  -14.9346   23.3752 H           1 MOL       0.1706
     55 H8         20.6550  -11.6375   27.0611 H           1 MOL       0.0704
     56 H9         20.8292  -13.0494   28.0935 H           1 MOL       0.0704
     57 H10        22.2655  -11.4317   25.2033 H           1 MOL       0.0584
     58 H11        24.0956  -12.2832   23.9077 H           1 MOL       0.0701
     59 H12        23.6253  -16.0651   25.7457 H           1 MOL       0.0701
     60 H13        21.8202  -15.1940   27.0574 H           1 MOL       0.0584
     61 H14        17.3092  -12.9597   23.0162 H           1 MOL       0.0779
     62 H15        18.2104  -14.9712   25.0657 H           1 MOL       0.0547
     63 H16        17.0564  -13.6559   25.2738 H           1 MOL       0.0547
     64 H17        19.0561  -13.9424   27.0725 H           1 MOL       0.1881
     65 H18        18.7129  -11.3225   21.9028 H           1 MOL       0.0802
     66 H19        20.4322  -10.6140   20.5778 H           1 MOL       0.0313
     67 H20        19.3079  -10.8249   19.2196 H           1 MOL       0.0313
     68 H21        21.6770  -12.1692   19.2886 H           1 MOL       0.0287
     69 H22        20.1986  -12.9577   18.6722 H           1 MOL       0.0287
     70 H23        20.6799  -14.4992   20.3501 H           1 MOL       0.0524
     71 H24        21.5316  -13.3028   21.3678 H           1 MOL       0.0524
     72 H25        16.7366  -10.5704   21.2398 H           1 MOL       0.1878
     73 H26        14.9948  -12.2570   19.5547 H           1 MOL       0.0683
     74 H27        15.0521  -10.5036   19.5022 H           1 MOL       0.0683
     75 H28        14.5757   -9.2346   21.7159 H           1 MOL       0.0557
     76 H29        12.9576   -9.0323   23.4427 H           1 MOL       0.0599
     77 H30        10.0307   -9.7340   25.2916 H           1 MOL       0.3180
     78 H31        11.0356   -8.9799   24.2843 H           1 MOL       0.3180
     79 H32        10.9513  -12.7786   24.7267 H           1 MOL       0.3180
     80 H33         9.9773  -11.7674   25.5159 H           1 MOL       0.3180
     81 H34        11.9055  -13.0968   22.9018 H           1 MOL       0.0599
     82 H35        13.5326  -13.2845   21.1871 H           1 MOL       0.0557
@<TRIPOS>BOND
     1     1     3   1
     2     1     7   2
     3     1     8   2
     4    14     1  am
     5    12     2   1
     6     3     9  ar
     7     3    10  ar
     8     5     4   1
     9     6     5   1
    10    11     6  ar
    11    12     6  ar
    12     9    11  ar
    13    10    12  ar
    14    13    15   2
    15    25    13   1
    16    13    30  am
    17    25    14   1
    18    16    17   1
    19    29    16   1
    20    17    18  ar
    21    17    22  ar
    22    18    19  ar
    23    19    20  ar
    24    21    20  ar
    25    20    23   1
    26    22    21  ar
    27    23    24   3
    28    26    25   1
    29    27    26   1
    30    27    28   2
    31    27    29  am
    32    30    31   1
    33    30    36   1
    34    31    32   1
    35    31    34   1
    36    32    33   2
    37    32    37  am
    38    34    35   1
    39    35    36   1
    40    37    38   1
    41    38    39   1
    42    39    40  ar
    43    39    47  ar
    44    40    41  ar
    45    41    42  ar
    46    42    43   1
    47    42    46  ar
    48    43    44  ar
    49    43    45  ar
    50    46    47  ar
    51     4    48   1
    52     4    49   1
    53     4    50   1
    54     9    51   1
    55    10    52   1
    56    11    53   1
    57    14    54   1
    58    16    55   1
    59    16    56   1
    60    18    57   1
    61    19    58   1
    62    21    59   1
    63    22    60   1
    64    25    61   1
    65    26    62   1
    66    26    63   1
    67    29    64   1
    68    31    65   1
    69    34    66   1
    70    34    67   1
    71    35    68   1
    72    35    69   1
    73    36    70   1
    74    36    71   1
    75    37    72   1
    76    38    73   1
    77    38    74   1
    78    40    75   1
    79    41    76   1
    80    44    77   1
    81    44    78   1
    82    45    79   1
    83    45    80   1
    84    46    81   1
    85    47    82   1
@<TRIPOS>SUBSTRUCTURE
     1  MOL      2

