@<TRIPOS>MOLECULE
3utu_ligand_007
    82    85
SMALL
GAST_HUCK
****
This file was generated by PARSER (from files_GN.cpp)

@<TRIPOS>ATOM
      1 S8         19.8552  -14.1300   26.4424 S.o2        1 MOL       0.0657
      2 CL         24.3277  -17.0904   25.6861 Cl          1 MOL      -0.0788
      3 C35        21.5341  -14.2393   25.9789 C.ar        1 MOL       0.0977
      4 C10        25.6296  -14.9733   23.3013 C.3         1 MOL       0.0596
      5 O9         25.5164  -14.5220   24.6628 O.3         1 MOL      -0.3203
      6 C5         24.2187  -14.4510   25.0967 C.ar        1 MOL       0.1052
      7 O1         19.3484  -15.4085   27.2434 O.2         1 MOL      -0.1516
      8 O10        19.7684  -12.8878   27.4305 O.2         1 MOL      -0.1516
      9 C7         22.2197  -13.1006   25.5019 C.ar        1 MOL      -0.0438
     10 C3         22.2158  -15.4749   26.0484 C.ar        1 MOL      -0.0300
     11 C6         23.5555  -13.2086   25.0749 C.ar        1 MOL      -0.0306
     12 C4         23.5529  -15.5847   25.6109 C.ar        1 MOL       0.0696
     13 C13        18.4938  -13.1242   22.9245 C.2         1 MOL       0.2048
     14 N11        18.7937  -13.7653   25.1806 N.am        1 MOL      -0.2244
     15 O14        17.3866  -12.6476   23.1601 O.2         1 MOL      -0.3945
     16 C15        18.1202  -19.0773   24.6775 C.3         1 MOL       0.0687
     17 C31        18.1557  -19.0039   26.1586 C.ar        1 MOL      -0.0116
     18 C32        19.3799  -18.8732   26.8542 C.ar        1 MOL      -0.0467
     19 C33        19.4034  -18.7547   28.2577 C.ar        1 MOL      -0.0334
     20 C44        18.1988  -18.7753   28.9896 C.ar        1 MOL       0.0883
     21 C8         16.9718  -18.9141   28.3079 C.ar        1 MOL      -0.0334
     22 C9         16.9505  -19.0142   26.9033 C.ar        1 MOL      -0.0467
     23 C40        18.2151  -18.6517   30.2850 C.1         1 MOL       0.0934
     24 N63        18.2209  -18.5360   31.4267 N.1         1 MOL      -0.3338
     25 C45        18.9302  -14.2055   23.8240 C.3         1 MOL       0.1430
     26 C12        18.0840  -15.4940   23.5594 C.3         1 MOL       0.0742
     27 C46        18.5995  -16.7363   24.1128 C.2         1 MOL       0.1821
     28 O22        19.7686  -16.8321   24.4702 O.2         1 MOL      -0.3967
     29 N14        17.8019  -17.7998   24.1224 N.am        1 MOL      -0.2739
     30 N15        19.1398  -12.7328   21.8109 N.am        1 MOL      -0.2500
     31 C16        18.6614  -11.6830   20.9392 C.3         1 MOL       0.1338
     32 C17        17.4088  -12.0306   20.2650 C.2         1 MOL       0.2037
     33 O18        17.3756  -13.0465   19.5799 O.2         1 MOL      -0.3944
     34 C34        19.8204  -11.4233   19.9439 C.3         1 MOL      -0.0104
     35 C1         20.6223  -12.7268   19.9474 C.3         1 MOL      -0.0281
     36 C2         20.3905  -13.2826   21.3599 C.3         1 MOL       0.0369
     37 N19        16.3474  -11.2414   20.3881 N.am        1 MOL      -0.2737
     38 C20        15.0660  -11.4206   19.7726 C.3         1 MOL       0.0645
     39 C21        13.9818  -11.2895   20.7804 C.ar        1 MOL      -0.0210
     40 C26        13.8542  -12.2385   21.8162 C.ar        1 MOL      -0.0584
     41 C25        12.8291  -12.1253   22.7721 C.ar        1 MOL      -0.0633
     42 C24        11.9037  -11.0499   22.7434 C.ar        1 MOL       0.0188
     43 C27        10.9103  -10.9115   23.7232 C.cat       1 MOL       0.2318
     44 N29        10.3907  -11.9150   24.3349 N.pl3       1 MOL      -0.2729
     45 N28        10.4461   -9.7729   24.0806 N.pl3       1 MOL      -0.2729
     46 C23        12.0312  -10.1125   21.6848 C.ar        1 MOL      -0.0633
     47 C22        13.0482  -10.2305   20.7199 C.ar        1 MOL      -0.0584
     48 H1         26.6871  -14.9827   23.0304 H           1 MOL       0.0578
     49 H2         25.1092  -14.3023   22.6120 H           1 MOL       0.0578
     50 H3         25.2405  -15.9868   23.1809 H           1 MOL       0.0578
     51 H4         21.7515  -12.1915   25.4517 H           1 MOL       0.0610
     52 H5         21.7369  -16.3054   26.4038 H           1 MOL       0.0614
     53 H6         24.0426  -12.3775   24.7280 H           1 MOL       0.0542
     54 H7         17.9448  -13.3731   25.4366 H           1 MOL       0.1706
     55 H8         17.3482  -19.7847   24.3723 H           1 MOL       0.0704
     56 H9         19.0654  -19.4463   24.2673 H           1 MOL       0.0704
     57 H10        20.2632  -18.8398   26.3411 H           1 MOL       0.0584
     58 H11        20.3075  -18.6475   28.7289 H           1 MOL       0.0701
     59 H12        16.0834  -18.9369   28.8197 H           1 MOL       0.0701
     60 H13        16.0488  -19.0936   26.4259 H           1 MOL       0.0584
     61 H14        19.9806  -14.4337   23.6368 H           1 MOL       0.0779
     62 H15        17.9975  -15.6487   22.4748 H           1 MOL       0.0547
     63 H16        17.0686  -15.3266   23.9497 H           1 MOL       0.0547
     64 H17        16.9051  -17.6923   23.7598 H           1 MOL       0.1881
     65 H18        18.5252  -10.7710   21.5372 H           1 MOL       0.0802
     66 H19        20.4549  -10.6074   20.3100 H           1 MOL       0.0313
     67 H20        19.4808  -11.1736   18.9349 H           1 MOL       0.0313
     68 H21        21.6812  -12.5558   19.7385 H           1 MOL       0.0287
     69 H22        20.2164  -13.4158   19.1982 H           1 MOL       0.0287
     70 H23        20.3636  -14.3764   21.3119 H           1 MOL       0.0524
     71 H24        21.1950  -12.9651   22.0308 H           1 MOL       0.0524
     72 H25        16.4607  -10.4368   20.9247 H           1 MOL       0.1878
     73 H26        14.9653  -12.3919   19.2769 H           1 MOL       0.0683
     74 H27        14.9781  -10.6564   19.0016 H           1 MOL       0.0683
     75 H28        14.5121  -13.0205   21.8786 H           1 MOL       0.0557
     76 H29        12.7851  -12.8316   23.5113 H           1 MOL       0.0599
     77 H30         9.7280  -11.7737   24.9777 H           1 MOL       0.3180
     78 H31        10.6530  -12.7872   24.1325 H           1 MOL       0.3180
     79 H32        10.7657   -8.9862   23.6914 H           1 MOL       0.3180
     80 H33         9.7897   -9.7195   24.7448 H           1 MOL       0.3180
     81 H34        11.3709   -9.3363   21.5927 H           1 MOL       0.0599
     82 H35        13.1055   -9.5336   19.9733 H           1 MOL       0.0557
@<TRIPOS>BOND
     1     1     3   1
     2     1     7   2
     3     1     8   2
     4    14     1  am
     5    12     2   1
     6     3     9  ar
     7     3    10  ar
     8     5     4   1
     9     6     5   1
    10    11     6  ar
    11    12     6  ar
    12     9    11  ar
    13    10    12  ar
    14    13    15   2
    15    25    13   1
    16    13    30  am
    17    25    14   1
    18    16    17   1
    19    29    16   1
    20    17    18  ar
    21    17    22  ar
    22    18    19  ar
    23    19    20  ar
    24    21    20  ar
    25    20    23   1
    26    22    21  ar
    27    23    24   3
    28    26    25   1
    29    27    26   1
    30    27    28   2
    31    27    29  am
    32    30    31   1
    33    30    36   1
    34    31    32   1
    35    31    34   1
    36    32    33   2
    37    32    37  am
    38    34    35   1
    39    35    36   1
    40    37    38   1
    41    38    39   1
    42    39    40  ar
    43    39    47  ar
    44    40    41  ar
    45    41    42  ar
    46    42    43   1
    47    42    46  ar
    48    43    44  ar
    49    43    45  ar
    50    46    47  ar
    51     4    48   1
    52     4    49   1
    53     4    50   1
    54     9    51   1
    55    10    52   1
    56    11    53   1
    57    14    54   1
    58    16    55   1
    59    16    56   1
    60    18    57   1
    61    19    58   1
    62    21    59   1
    63    22    60   1
    64    25    61   1
    65    26    62   1
    66    26    63   1
    67    29    64   1
    68    31    65   1
    69    34    66   1
    70    34    67   1
    71    35    68   1
    72    35    69   1
    73    36    70   1
    74    36    71   1
    75    37    72   1
    76    38    73   1
    77    38    74   1
    78    40    75   1
    79    41    76   1
    80    44    77   1
    81    44    78   1
    82    45    79   1
    83    45    80   1
    84    46    81   1
    85    47    82   1
@<TRIPOS>SUBSTRUCTURE
     1  MOL      2

