@<TRIPOS>MOLECULE
3utu_ligand_034
    82    85
SMALL
GAST_HUCK
****
This file was generated by PARSER (from files_GN.cpp)

@<TRIPOS>ATOM
      1 S8         14.5814  -17.0926   21.3099 S.o2        1 MOL       0.0657
      2 CL         13.6216  -17.7402   16.0383 Cl          1 MOL      -0.0788
      3 C35        13.4964  -17.5857   20.0326 C.ar        1 MOL       0.0977
      4 C10        10.0176  -17.7069   16.4784 C.3         1 MOL       0.0596
      5 O9         10.9165  -18.7416   16.9172 O.3         1 MOL      -0.3203
      6 C5         11.7619  -18.3414   17.9179 C.ar        1 MOL       0.1052
      7 O1         13.9703  -17.4516   22.7331 O.2         1 MOL      -0.1516
      8 O10        15.9175  -17.9214   21.0597 O.2         1 MOL      -0.1516
      9 C7         12.2010  -18.0781   20.3094 C.ar        1 MOL      -0.0438
     10 C3         13.9172  -17.4854   18.6883 C.ar        1 MOL      -0.0300
     11 C6         11.3472  -18.4627   19.2595 C.ar        1 MOL      -0.0306
     12 C4         13.0617  -17.8624   17.6339 C.ar        1 MOL       0.0696
     13 C13        15.9215  -13.3153   21.2435 C.2         1 MOL       0.2048
     14 N11        14.8471  -15.4293   21.1702 N.am        1 MOL      -0.2244
     15 O14        15.7576  -12.3827   22.0238 O.2         1 MOL      -0.3945
     16 C15        20.7822  -14.7764   23.0974 C.3         1 MOL       0.0687
     17 C31        20.8084  -13.9824   24.3540 C.ar        1 MOL      -0.0116
     18 C32        20.1912  -14.4664   25.5307 C.ar        1 MOL      -0.0467
     19 C33        20.1929  -13.7007   26.7125 C.ar        1 MOL      -0.0334
     20 C44        20.8349  -12.4445   26.7412 C.ar        1 MOL       0.0883
     21 C8         21.4593  -11.9569   25.5718 C.ar        1 MOL      -0.0334
     22 C9         21.4472  -12.7228   24.3939 C.ar        1 MOL      -0.0467
     23 C40        20.8704  -11.7422   27.8394 C.1         1 MOL       0.0934
     24 N63        20.9112  -11.1230   28.8050 N.1         1 MOL      -0.3338
     25 C45        15.8418  -14.6537   21.8565 C.3         1 MOL       0.1430
     26 C12        17.2367  -15.3612   21.9921 C.3         1 MOL       0.0742
     27 C46        18.3915  -14.6193   22.4858 C.2         1 MOL       0.1821
     28 O22        18.3498  -13.4046   22.6610 O.2         1 MOL      -0.3967
     29 N14        19.5026  -15.3061   22.7393 N.am        1 MOL      -0.2739
     30 N15        16.2333  -13.0310   19.9628 N.am        1 MOL      -0.2500
     31 C16        16.6346  -11.7114   19.5116 C.3         1 MOL       0.1338
     32 C17        15.5289  -10.7538   19.5336 C.2         1 MOL       0.2037
     33 O18        14.5282  -10.9968   18.8710 O.2         1 MOL      -0.3944
     34 C34        17.2251  -11.9420   18.0956 C.3         1 MOL      -0.0104
     35 C1         16.5143  -13.2094   17.6071 C.3         1 MOL      -0.0281
     36 C2         16.2712  -13.9985   18.9026 C.3         1 MOL       0.0369
     37 N19        15.5660   -9.7056   20.3499 N.am        1 MOL      -0.2737
     38 C20        14.4810   -8.8169   20.6392 C.3         1 MOL       0.0645
     39 C21        13.6433   -9.3539   21.7439 C.ar        1 MOL      -0.0210
     40 C26        13.4132   -8.6003   22.9203 C.ar        1 MOL      -0.0584
     41 C25        12.6390   -9.1275   23.9696 C.ar        1 MOL      -0.0633
     42 C24        12.0672  -10.4208   23.8722 C.ar        1 MOL       0.0188
     43 C27        11.3031  -10.9512   24.9044 C.cat       1 MOL       0.2318
     44 N29        11.7254  -10.9809   26.1119 N.pl3       1 MOL      -0.2729
     45 N28        10.1428  -11.4303   24.6633 N.pl3       1 MOL      -0.2729
     46 C23        12.2688  -11.1593   22.6794 C.ar        1 MOL      -0.0633
     47 C22        13.0430  -10.6308   21.6304 C.ar        1 MOL      -0.0584
     48 H1          9.3786  -18.1180   15.6965 H           1 MOL       0.0578
     49 H2         10.5638  -16.8576   16.0606 H           1 MOL       0.0578
     50 H3          9.3776  -17.3612   17.2937 H           1 MOL       0.0578
     51 H4         11.8709  -18.1663   21.2732 H           1 MOL       0.0610
     52 H5         14.8573  -17.1395   18.4746 H           1 MOL       0.0614
     53 H6         10.4169  -18.8313   19.4742 H           1 MOL       0.0542
     54 H7         14.1156  -14.9366   20.7666 H           1 MOL       0.1706
     55 H8         21.4636  -15.6203   23.2179 H           1 MOL       0.0704
     56 H9         21.1445  -14.1833   22.2516 H           1 MOL       0.0704
     57 H10        19.7150  -15.3703   25.5294 H           1 MOL       0.0584
     58 H11        19.7203  -14.0685   27.5471 H           1 MOL       0.0701
     59 H12        21.9249  -11.0448   25.5657 H           1 MOL       0.0701
     60 H13        21.9114  -12.3502   23.5630 H           1 MOL       0.0584
     61 H14        15.4660  -14.5539   22.8813 H           1 MOL       0.0779
     62 H15        17.5089  -15.7892   21.0252 H           1 MOL       0.0547
     63 H16        17.1028  -16.2031   22.6777 H           1 MOL       0.0547
     64 H17        19.4463  -16.2737   22.6503 H           1 MOL       0.1881
     65 H18        17.4545  -11.3512   20.1471 H           1 MOL       0.0802
     66 H19        18.3005  -12.1407   18.1629 H           1 MOL       0.0313
     67 H20        17.0702  -11.1037   17.4079 H           1 MOL       0.0313
     68 H21        17.1161  -13.7755   16.8912 H           1 MOL       0.0287
     69 H22        15.5610  -12.9457   17.1370 H           1 MOL       0.0287
     70 H23        15.3250  -14.5354   18.8119 H           1 MOL       0.0524
     71 H24        17.0854  -14.7075   19.0548 H           1 MOL       0.0524
     72 H25        16.3711   -9.5813   20.8758 H           1 MOL       0.1878
     73 H26        13.8441   -8.6512   19.7697 H           1 MOL       0.0683
     74 H27        14.9116   -7.8488   20.9011 H           1 MOL       0.0683
     75 H28        13.8081   -7.6619   23.0183 H           1 MOL       0.0557
     76 H29        12.4852   -8.5501   24.8049 H           1 MOL       0.0599
     77 H30        11.2001  -11.3464   26.7891 H           1 MOL       0.3180
     78 H31        12.5856  -10.6798   26.3112 H           1 MOL       0.3180
     79 H32         9.7978  -11.4103   23.7935 H           1 MOL       0.3180
     80 H33         9.6232  -11.7722   25.3523 H           1 MOL       0.3180
     81 H34        11.8759  -12.1006   22.5717 H           1 MOL       0.0599
     82 H35        13.1747  -11.1972   20.7833 H           1 MOL       0.0557
@<TRIPOS>BOND
     1     1     3   1
     2     1     7   2
     3     1     8   2
     4    14     1  am
     5    12     2   1
     6     3     9  ar
     7     3    10  ar
     8     5     4   1
     9     6     5   1
    10    11     6  ar
    11    12     6  ar
    12     9    11  ar
    13    10    12  ar
    14    13    15   2
    15    25    13   1
    16    13    30  am
    17    25    14   1
    18    16    17   1
    19    29    16   1
    20    17    18  ar
    21    17    22  ar
    22    18    19  ar
    23    19    20  ar
    24    21    20  ar
    25    20    23   1
    26    22    21  ar
    27    23    24   3
    28    26    25   1
    29    27    26   1
    30    27    28   2
    31    27    29  am
    32    30    31   1
    33    30    36   1
    34    31    32   1
    35    31    34   1
    36    32    33   2
    37    32    37  am
    38    34    35   1
    39    35    36   1
    40    37    38   1
    41    38    39   1
    42    39    40  ar
    43    39    47  ar
    44    40    41  ar
    45    41    42  ar
    46    42    43   1
    47    42    46  ar
    48    43    44  ar
    49    43    45  ar
    50    46    47  ar
    51     4    48   1
    52     4    49   1
    53     4    50   1
    54     9    51   1
    55    10    52   1
    56    11    53   1
    57    14    54   1
    58    16    55   1
    59    16    56   1
    60    18    57   1
    61    19    58   1
    62    21    59   1
    63    22    60   1
    64    25    61   1
    65    26    62   1
    66    26    63   1
    67    29    64   1
    68    31    65   1
    69    34    66   1
    70    34    67   1
    71    35    68   1
    72    35    69   1
    73    36    70   1
    74    36    71   1
    75    37    72   1
    76    38    73   1
    77    38    74   1
    78    40    75   1
    79    41    76   1
    80    44    77   1
    81    44    78   1
    82    45    79   1
    83    45    80   1
    84    46    81   1
    85    47    82   1
@<TRIPOS>SUBSTRUCTURE
     1  MOL      2

