@<TRIPOS>MOLECULE
3utu_ligand_067
    82    85
SMALL
GAST_HUCK
****
This file was generated by PARSER (from files_GN.cpp)

@<TRIPOS>ATOM
      1 S8         18.0027  -15.7048   24.9687 S.o2        1 MOL       0.0657
      2 CL         20.9290  -11.2933   26.1772 Cl          1 MOL      -0.0788
      3 C35        19.4632  -14.7510   24.8466 C.ar        1 MOL       0.0977
      4 C10        24.2336  -13.0935   24.3470 C.3         1 MOL       0.0596
      5 O9         22.9554  -12.4352   24.3065 O.3         1 MOL      -0.3203
      6 C5         21.8374  -13.2157   24.5032 C.ar        1 MOL       0.1052
      7 O1         18.3544  -17.2441   25.1548 O.2         1 MOL      -0.1516
      8 O10        17.1867  -15.2596   26.2598 O.2         1 MOL      -0.1516
      9 C7         20.5123  -15.2147   24.0291 C.ar        1 MOL      -0.0438
     10 C3         19.6173  -13.5157   25.5066 C.ar        1 MOL      -0.0300
     11 C6         21.6601  -14.4351   23.8151 C.ar        1 MOL      -0.0306
     12 C4         20.7989  -12.7577   25.3446 C.ar        1 MOL       0.0696
     13 C13        17.6237  -13.8080   22.1594 C.2         1 MOL       0.2048
     14 N11        16.9366  -15.5538   23.6675 N.am        1 MOL      -0.2244
     15 O14        16.9690  -13.0462   22.8570 O.2         1 MOL      -0.3945
     16 C15        17.5156  -19.3773   21.1398 C.3         1 MOL       0.0687
     17 C31        18.9726  -19.2411   20.8261 C.ar        1 MOL      -0.0116
     18 C32        19.6034  -20.0772   19.8779 C.ar        1 MOL      -0.0467
     19 C33        20.9748  -19.9279   19.5751 C.ar        1 MOL      -0.0334
     20 C44        21.7313  -18.9094   20.1918 C.ar        1 MOL       0.0883
     21 C8         21.1209  -18.0845   21.1547 C.ar        1 MOL      -0.0334
     22 C9         19.7661  -18.2881   21.5007 C.ar        1 MOL      -0.0467
     23 C40        22.9900  -18.7363   19.9012 C.1         1 MOL       0.0934
     24 N63        24.0968  -18.5769   19.6503 N.1         1 MOL      -0.3338
     25 C45        17.3506  -15.2393   22.3297 C.3         1 MOL       0.1430
     26 C12        16.3274  -15.8031   21.2774 C.3         1 MOL       0.0742
     27 C46        16.7490  -17.0751   20.7008 C.2         1 MOL       0.1821
     28 O22        17.0944  -17.1138   19.5240 O.2         1 MOL      -0.3967
     29 N14        16.8630  -18.1469   21.4753 N.am        1 MOL      -0.2739
     30 N15        18.5454  -13.3018   21.3089 N.am        1 MOL      -0.2500
     31 C16        18.8039  -11.8902   21.1394 C.3         1 MOL       0.1338
     32 C17        17.7327  -11.2521   20.3770 C.2         1 MOL       0.2037
     33 O18        17.7871  -11.1623   19.1592 O.2         1 MOL      -0.3944
     34 C34        20.2038  -11.8392   20.4777 C.3         1 MOL      -0.0104
     35 C1         20.2638  -13.1302   19.6579 C.3         1 MOL      -0.0281
     36 C2         19.4131  -14.1037   20.4885 C.3         1 MOL       0.0369
     37 N19        16.6328  -10.8954   21.0255 N.am        1 MOL      -0.2737
     38 C20        15.4363  -10.3664   20.4596 C.3         1 MOL       0.0645
     39 C21        14.3557  -10.4576   21.4719 C.ar        1 MOL      -0.0210
     40 C26        13.8515  -11.7149   21.8617 C.ar        1 MOL      -0.0584
     41 C25        12.8238  -11.8154   22.8197 C.ar        1 MOL      -0.0633
     42 C24        12.2637  -10.6648   23.4324 C.ar        1 MOL       0.0188
     43 C27        11.1915  -10.7586   24.3475 C.cat       1 MOL       0.2318
     44 N29        10.6476  -11.8676   24.6828 N.pl3       1 MOL      -0.2729
     45 N28        10.6606   -9.7404   24.8993 N.pl3       1 MOL      -0.2729
     46 C23        12.8112   -9.4071   23.0524 C.ar        1 MOL      -0.0633
     47 C22        13.8308   -9.3036   22.0903 C.ar        1 MOL      -0.0584
     48 H1         25.0232  -12.3342   24.3335 H           1 MOL       0.0578
     49 H2         24.3804  -13.7273   23.4744 H           1 MOL       0.0578
     50 H3         24.3582  -13.6883   25.2521 H           1 MOL       0.0578
     51 H4         20.4352  -16.1128   23.5572 H           1 MOL       0.0610
     52 H5         18.8736  -13.1643   26.1087 H           1 MOL       0.0614
     53 H6         22.3664  -14.7697   23.1607 H           1 MOL       0.0542
     54 H7         16.0154  -15.3496   23.8899 H           1 MOL       0.1706
     55 H8         17.4323  -20.0416   21.9947 H           1 MOL       0.0704
     56 H9         16.9798  -19.8430   20.3121 H           1 MOL       0.0704
     57 H10        19.0753  -20.8192   19.4172 H           1 MOL       0.0584
     58 H11        21.4023  -20.5666   18.9027 H           1 MOL       0.0701
     59 H12        21.6460  -17.3395   21.6236 H           1 MOL       0.0701
     60 H13        19.3623  -17.7278   22.2507 H           1 MOL       0.0584
     61 H14        18.2942  -15.7630   22.1873 H           1 MOL       0.0779
     62 H15        16.1875  -15.0768   20.4665 H           1 MOL       0.0547
     63 H16        15.3429  -15.9296   21.7351 H           1 MOL       0.0547
     64 H17        16.5501  -18.0600   22.3903 H           1 MOL       0.1881
     65 H18        18.8928  -11.3949   22.1129 H           1 MOL       0.0802
     66 H19        20.9851  -11.8673   21.2481 H           1 MOL       0.0313
     67 H20        20.3637  -10.9563   19.8583 H           1 MOL       0.0313
     68 H21        21.2873  -13.4882   19.5286 H           1 MOL       0.0287
     69 H22        19.8138  -12.9742   18.6753 H           1 MOL       0.0287
     70 H23        18.8376  -14.7543   19.8303 H           1 MOL       0.0524
     71 H24        20.0763  -14.7154   21.1040 H           1 MOL       0.0524
     72 H25        16.6351  -11.0249   21.9823 H           1 MOL       0.1878
     73 H26        15.1427  -10.9310   19.5713 H           1 MOL       0.0683
     74 H27        15.6263   -9.3324   20.1575 H           1 MOL       0.0683
     75 H28        14.2234  -12.5723   21.4428 H           1 MOL       0.0557
     76 H29        12.4910  -12.7532   23.0526 H           1 MOL       0.0599
     77 H30         9.9221  -11.8637   25.2752 H           1 MOL       0.3180
     78 H31        10.9426  -12.6868   24.3411 H           1 MOL       0.3180
     79 H32        10.9729   -8.8755   24.7297 H           1 MOL       0.3180
     80 H33         9.9260   -9.8455   25.4712 H           1 MOL       0.3180
     81 H34        12.4650   -8.5354   23.4588 H           1 MOL       0.0599
     82 H35        14.1929   -8.3762   21.8484 H           1 MOL       0.0557
@<TRIPOS>BOND
     1     1     3   1
     2     1     7   2
     3     1     8   2
     4    14     1  am
     5    12     2   1
     6     3     9  ar
     7     3    10  ar
     8     5     4   1
     9     6     5   1
    10    11     6  ar
    11    12     6  ar
    12     9    11  ar
    13    10    12  ar
    14    13    15   2
    15    25    13   1
    16    13    30  am
    17    25    14   1
    18    16    17   1
    19    29    16   1
    20    17    18  ar
    21    17    22  ar
    22    18    19  ar
    23    19    20  ar
    24    21    20  ar
    25    20    23   1
    26    22    21  ar
    27    23    24   3
    28    26    25   1
    29    27    26   1
    30    27    28   2
    31    27    29  am
    32    30    31   1
    33    30    36   1
    34    31    32   1
    35    31    34   1
    36    32    33   2
    37    32    37  am
    38    34    35   1
    39    35    36   1
    40    37    38   1
    41    38    39   1
    42    39    40  ar
    43    39    47  ar
    44    40    41  ar
    45    41    42  ar
    46    42    43   1
    47    42    46  ar
    48    43    44  ar
    49    43    45  ar
    50    46    47  ar
    51     4    48   1
    52     4    49   1
    53     4    50   1
    54     9    51   1
    55    10    52   1
    56    11    53   1
    57    14    54   1
    58    16    55   1
    59    16    56   1
    60    18    57   1
    61    19    58   1
    62    21    59   1
    63    22    60   1
    64    25    61   1
    65    26    62   1
    66    26    63   1
    67    29    64   1
    68    31    65   1
    69    34    66   1
    70    34    67   1
    71    35    68   1
    72    35    69   1
    73    36    70   1
    74    36    71   1
    75    37    72   1
    76    38    73   1
    77    38    74   1
    78    40    75   1
    79    41    76   1
    80    44    77   1
    81    44    78   1
    82    45    79   1
    83    45    80   1
    84    46    81   1
    85    47    82   1
@<TRIPOS>SUBSTRUCTURE
     1  MOL      2

