@<TRIPOS>MOLECULE
3utu_ligand_082
    82    85
SMALL
GAST_HUCK
****
This file was generated by PARSER (from files_GN.cpp)

@<TRIPOS>ATOM
      1 S8         18.5609  -15.9312   26.8500 S.o2        1 MOL       0.0657
      2 CL         18.1409  -18.8653   31.3893 Cl          1 MOL      -0.0788
      3 C35        19.0905  -17.2495   27.8594 C.ar        1 MOL       0.0977
      4 C10        19.9692  -21.6098   30.1815 C.3         1 MOL       0.0596
      5 O9         20.5634  -20.3086   30.3392 O.3         1 MOL      -0.3203
      6 C5         20.0342  -19.3454   29.5186 C.ar        1 MOL       0.1052
      7 O1         17.0610  -15.4909   27.1430 O.2         1 MOL      -0.1516
      8 O10        19.4145  -14.6484   27.2475 O.2         1 MOL      -0.1516
      9 C7         20.2362  -17.9876   27.4974 C.ar        1 MOL      -0.0438
     10 C3         18.4252  -17.5579   29.0639 C.ar        1 MOL      -0.0300
     11 C6         20.7003  -19.0303   28.3179 C.ar        1 MOL      -0.0306
     12 C4         18.9055  -18.5867   29.9011 C.ar        1 MOL       0.0696
     13 C13        17.7755  -14.8334   23.6760 C.2         1 MOL       0.2048
     14 N11        18.8659  -16.2253   25.2197 N.am        1 MOL      -0.2244
     15 O14        16.8848  -14.1887   24.2162 O.2         1 MOL      -0.3945
     16 C15        16.0404  -18.4552   20.8949 C.3         1 MOL       0.0687
     17 C31        15.8691  -17.3401   19.9182 C.ar        1 MOL      -0.0116
     18 C32        14.8462  -17.3773   18.9388 C.ar        1 MOL      -0.0467
     19 C33        14.7257  -16.3527   17.9804 C.ar        1 MOL      -0.0334
     20 C44        15.6281  -15.2654   17.9861 C.ar        1 MOL       0.0883
     21 C8         16.6661  -15.2316   18.9432 C.ar        1 MOL      -0.0334
     22 C9         16.7934  -16.2698   19.8831 C.ar        1 MOL      -0.0467
     23 C40        15.4936  -14.2966   17.1246 C.1         1 MOL       0.0934
     24 N63        15.3749  -13.4381   16.3715 N.1         1 MOL      -0.3338
     25 C45        17.9442  -16.2236   24.1260 C.3         1 MOL       0.1430
     26 C12        16.6295  -17.0522   24.3555 C.3         1 MOL       0.0742
     27 C46        15.9164  -17.4091   23.1315 C.2         1 MOL       0.1821
     28 O22        14.7244  -17.1347   23.0145 O.2         1 MOL      -0.3967
     29 N14        16.5564  -18.0741   22.1811 N.am        1 MOL      -0.2739
     30 N15        18.5650  -14.2183   22.7720 N.am        1 MOL      -0.2500
     31 C16        18.3137  -12.8896   22.2445 C.3         1 MOL       0.1338
     32 C17        17.0025  -12.6614   21.6417 C.2         1 MOL       0.2037
     33 O18        16.2938  -13.6323   21.3772 O.2         1 MOL      -0.3944
     34 C34        19.4220  -12.6706   21.1817 C.3         1 MOL      -0.0104
     35 C1         20.5517  -13.5997   21.6224 C.3         1 MOL      -0.0281
     36 C2         19.8046  -14.7628   22.2894 C.3         1 MOL       0.0369
     37 N19        16.6380  -11.4387   21.2700 N.am        1 MOL      -0.2737
     38 C20        15.4184  -11.0793   20.6076 C.3         1 MOL       0.0645
     39 C21        14.2728  -11.0064   21.5563 C.ar        1 MOL      -0.0210
     40 C26        13.5818  -12.1731   21.9445 C.ar        1 MOL      -0.0584
     41 C25        12.5616  -12.1195   22.9109 C.ar        1 MOL      -0.0633
     42 C24        12.1561  -10.8913   23.4949 C.ar        1 MOL       0.0188
     43 C27        11.1183  -10.8393   24.4456 C.cat       1 MOL       0.2318
     44 N29        10.5402  -11.8802   24.9113 N.pl3       1 MOL      -0.2729
     45 N28        10.6538   -9.7413   24.9094 N.pl3       1 MOL      -0.2729
     46 C23        12.8257   -9.7189   23.0559 C.ar        1 MOL      -0.0633
     47 C22        13.8686   -9.7738   22.1127 C.ar        1 MOL      -0.0584
     48 H1         20.4999  -22.3010   30.8393 H           1 MOL       0.0578
     49 H2         20.0667  -21.9730   29.1538 H           1 MOL       0.0578
     50 H3         18.9142  -21.6029   30.4722 H           1 MOL       0.0578
     51 H4         20.7538  -17.7618   26.6449 H           1 MOL       0.0610
     52 H5         17.6000  -17.0263   29.3501 H           1 MOL       0.0614
     53 H6         21.5368  -19.5493   28.0487 H           1 MOL       0.0542
     54 H7         19.8017  -16.2163   24.9703 H           1 MOL       0.1706
     55 H8         16.7650  -19.1408   20.4517 H           1 MOL       0.0704
     56 H9         15.1037  -19.0090   21.0286 H           1 MOL       0.0704
     57 H10        14.1938  -18.1660   18.9053 H           1 MOL       0.0584
     58 H11        13.9842  -16.4158   17.2738 H           1 MOL       0.0701
     59 H12        17.3447  -14.4660   18.9515 H           1 MOL       0.0701
     60 H13        17.5562  -16.2261   20.5612 H           1 MOL       0.0584
     61 H14        18.4735  -16.7842   23.3515 H           1 MOL       0.0779
     62 H15        15.9598  -16.5154   25.0329 H           1 MOL       0.0547
     63 H16        16.8888  -17.9898   24.8587 H           1 MOL       0.0547
     64 H17        17.4683  -18.3453   22.3879 H           1 MOL       0.1881
     65 H18        18.4634  -12.1777   23.0670 H           1 MOL       0.0802
     66 H19        19.7503  -11.6295   21.1363 H           1 MOL       0.0313
     67 H20        19.0886  -12.9782   20.1850 H           1 MOL       0.0313
     68 H21        21.1923  -13.0917   22.3471 H           1 MOL       0.0287
     69 H22        21.1535  -13.9311   20.7752 H           1 MOL       0.0287
     70 H23        19.6121  -15.5564   21.5645 H           1 MOL       0.0524
     71 H24        20.4218  -15.1622   23.0978 H           1 MOL       0.0524
     72 H25        17.2526  -10.7055   21.4553 H           1 MOL       0.1878
     73 H26        15.2024  -11.7737   19.7921 H           1 MOL       0.0683
     74 H27        15.5815  -10.1015   20.1478 H           1 MOL       0.0683
     75 H28        13.8147  -13.0783   21.5282 H           1 MOL       0.0557
     76 H29        12.1200  -13.0033   23.1687 H           1 MOL       0.0599
     77 H30         9.8373  -11.7868   25.5221 H           1 MOL       0.3180
     78 H31        10.7910  -12.7409   24.6418 H           1 MOL       0.3180
     79 H32        10.9930   -8.9173   24.6341 H           1 MOL       0.3180
     80 H33         9.9442   -9.7557   25.5201 H           1 MOL       0.3180
     81 H34        12.5773   -8.7987   23.4227 H           1 MOL       0.0599
     82 H35        14.3381   -8.9052   21.8444 H           1 MOL       0.0557
@<TRIPOS>BOND
     1     1     3   1
     2     1     7   2
     3     1     8   2
     4    14     1  am
     5    12     2   1
     6     3     9  ar
     7     3    10  ar
     8     5     4   1
     9     6     5   1
    10    11     6  ar
    11    12     6  ar
    12     9    11  ar
    13    10    12  ar
    14    13    15   2
    15    25    13   1
    16    13    30  am
    17    25    14   1
    18    16    17   1
    19    29    16   1
    20    17    18  ar
    21    17    22  ar
    22    18    19  ar
    23    19    20  ar
    24    21    20  ar
    25    20    23   1
    26    22    21  ar
    27    23    24   3
    28    26    25   1
    29    27    26   1
    30    27    28   2
    31    27    29  am
    32    30    31   1
    33    30    36   1
    34    31    32   1
    35    31    34   1
    36    32    33   2
    37    32    37  am
    38    34    35   1
    39    35    36   1
    40    37    38   1
    41    38    39   1
    42    39    40  ar
    43    39    47  ar
    44    40    41  ar
    45    41    42  ar
    46    42    43   1
    47    42    46  ar
    48    43    44  ar
    49    43    45  ar
    50    46    47  ar
    51     4    48   1
    52     4    49   1
    53     4    50   1
    54     9    51   1
    55    10    52   1
    56    11    53   1
    57    14    54   1
    58    16    55   1
    59    16    56   1
    60    18    57   1
    61    19    58   1
    62    21    59   1
    63    22    60   1
    64    25    61   1
    65    26    62   1
    66    26    63   1
    67    29    64   1
    68    31    65   1
    69    34    66   1
    70    34    67   1
    71    35    68   1
    72    35    69   1
    73    36    70   1
    74    36    71   1
    75    37    72   1
    76    38    73   1
    77    38    74   1
    78    40    75   1
    79    41    76   1
    80    44    77   1
    81    44    78   1
    82    45    79   1
    83    45    80   1
    84    46    81   1
    85    47    82   1
@<TRIPOS>SUBSTRUCTURE
     1  MOL      2

