@<TRIPOS>MOLECULE
3utu_ligand_066
    82    85
SMALL
GAST_HUCK
****
This file was generated by PARSER (from files_GN.cpp)

@<TRIPOS>ATOM
      1 S8         17.4317  -16.4254   24.9064 S.o2        1 MOL       0.0657
      2 CL         15.3675  -19.8971   28.5159 Cl          1 MOL      -0.0788
      3 C35        16.2383  -17.6206   25.3518 C.ar        1 MOL       0.0977
      4 C10        11.9660  -19.9084   26.5932 C.3         1 MOL       0.0596
      5 O9         13.2936  -20.4365   26.4174 O.3         1 MOL      -0.3203
      6 C5         14.2518  -19.5119   26.0767 C.ar        1 MOL       0.1052
      7 O1         17.1850  -15.1001   25.7460 O.2         1 MOL      -0.1516
      8 O10        18.8754  -16.9790   25.2746 O.2         1 MOL      -0.1516
      9 C7         15.2128  -17.9698   24.4494 C.ar        1 MOL      -0.0438
     10 C3         16.2790  -18.2464   26.6146 C.ar        1 MOL      -0.0300
     11 C6         14.2438  -18.9190   24.7999 C.ar        1 MOL      -0.0306
     12 C4         15.2864  -19.1795   26.9837 C.ar        1 MOL       0.0696
     13 C13        18.1940  -14.1803   22.1407 C.2         1 MOL       0.2048
     14 N11        17.3288  -16.1010   23.2556 N.am        1 MOL      -0.2244
     15 O14        17.1855  -13.6461   22.5935 O.2         1 MOL      -0.3945
     16 C15        18.4320  -20.1392   22.0942 C.3         1 MOL       0.0687
     17 C31        19.3980  -20.8746   22.9487 C.ar        1 MOL      -0.0116
     18 C32        19.7587  -20.3582   24.2147 C.ar        1 MOL      -0.0467
     19 C33        20.6305  -21.0614   25.0679 C.ar        1 MOL      -0.0334
     20 C44        21.1301  -22.3236   24.6819 C.ar        1 MOL       0.0883
     21 C8         20.7613  -22.8606   23.4301 C.ar        1 MOL      -0.0334
     22 C9         19.9125  -22.1367   22.5703 C.ar        1 MOL      -0.0467
     23 C40        21.9018  -22.9949   25.4881 C.1         1 MOL       0.0934
     24 N63        22.5748  -23.5870   26.2025 N.1         1 MOL      -0.3338
     25 C45        18.3878  -15.6185   22.4152 C.3         1 MOL       0.1430
     26 C12        18.4644  -16.4910   21.1078 C.3         1 MOL       0.0742
     27 C46        18.0572  -17.8923   21.2121 C.2         1 MOL       0.1821
     28 O22        16.9630  -18.2165   20.7609 O.2         1 MOL      -0.3967
     29 N14        18.8151  -18.7775   21.8450 N.am        1 MOL      -0.2739
     30 N15        19.0140  -13.3959   21.4144 N.am        1 MOL      -0.2500
     31 C16        18.7159  -12.0229   21.0527 C.3         1 MOL       0.1338
     32 C17        17.4310  -11.8542   20.3678 C.2         1 MOL       0.2037
     33 O18        17.1791  -12.5591   19.3960 O.2         1 MOL      -0.3944
     34 C34        19.8983  -11.5453   20.1740 C.3         1 MOL      -0.0104
     35 C1         21.0443  -12.4656   20.5962 C.3         1 MOL      -0.0281
     36 C2         20.3338  -13.7730   20.9925 C.3         1 MOL       0.0369
     37 N19        16.5463  -10.9825   20.8368 N.am        1 MOL      -0.2737
     38 C20        15.2498  -10.6940   20.3094 C.3         1 MOL       0.0645
     39 C21        14.2432  -10.7327   21.4000 C.ar        1 MOL      -0.0210
     40 C26        13.7037  -11.9584   21.8459 C.ar        1 MOL      -0.0584
     41 C25        12.7245  -11.9903   22.8589 C.ar        1 MOL      -0.0633
     42 C24        12.2485  -10.8003   23.4753 C.ar        1 MOL       0.0188
     43 C27        11.2230  -10.8226   24.4446 C.cat       1 MOL       0.2318
     44 N29        10.6411  -11.8948   24.8307 N.pl3       1 MOL      -0.2729
     45 N28        10.7651   -9.7681   25.0064 N.pl3       1 MOL      -0.2729
     46 C23        12.8309   -9.5800   23.0376 C.ar        1 MOL      -0.0633
     47 C22        13.8036   -9.5462   22.0228 C.ar        1 MOL      -0.0584
     48 H1         11.3214  -20.7193   26.9317 H           1 MOL       0.0578
     49 H2         11.5632  -19.5247   25.6551 H           1 MOL       0.0578
     50 H3         11.9438  -19.1193   27.3489 H           1 MOL       0.0578
     51 H4         15.1405  -17.5275   23.5323 H           1 MOL       0.0610
     52 H5         17.0158  -17.9996   27.2779 H           1 MOL       0.0614
     53 H6         13.5200  -19.1796   24.1256 H           1 MOL       0.0542
     54 H7         16.4441  -16.1177   22.8596 H           1 MOL       0.1706
     55 H8         17.4743  -20.1457   22.6202 H           1 MOL       0.0704
     56 H9         18.2923  -20.6484   21.1381 H           1 MOL       0.0704
     57 H10        19.3776  -19.4677   24.5313 H           1 MOL       0.0584
     58 H11        20.8779  -20.6485   25.9727 H           1 MOL       0.0701
     59 H12        21.0933  -23.7870   23.1364 H           1 MOL       0.0701
     60 H13        19.6420  -22.5580   21.6753 H           1 MOL       0.0584
     61 H14        19.3330  -15.7305   22.9512 H           1 MOL       0.0779
     62 H15        19.4909  -16.4835   20.7315 H           1 MOL       0.0547
     63 H16        17.8527  -16.0200   20.3254 H           1 MOL       0.0547
     64 H17        19.6799  -18.4828   22.1782 H           1 MOL       0.1881
     65 H18        18.7233  -11.4378   21.9825 H           1 MOL       0.0802
     66 H19        20.1340  -10.4938   20.3565 H           1 MOL       0.0313
     67 H20        19.6980  -11.6820   19.1070 H           1 MOL       0.0313
     68 H21        21.5686  -12.0411   21.4563 H           1 MOL       0.0287
     69 H22        21.7528  -12.6149   19.7793 H           1 MOL       0.0287
     70 H23        20.2893  -14.4437   20.1290 H           1 MOL       0.0524
     71 H24        20.8949  -14.2531   21.7991 H           1 MOL       0.0524
     72 H25        16.8210  -10.4409   21.5947 H           1 MOL       0.1878
     73 H26        14.9481  -11.3756   19.5106 H           1 MOL       0.0683
     74 H27        15.3069   -9.6951   19.8733 H           1 MOL       0.0683
     75 H28        14.0088  -12.8389   21.4218 H           1 MOL       0.0557
     76 H29        12.3576  -12.9049   23.1321 H           1 MOL       0.0599
     77 H30         9.9454  -11.8420   25.4545 H           1 MOL       0.3180
     78 H31        10.8793  -12.7301   24.4920 H           1 MOL       0.3180
     79 H32        11.1118   -8.9247   24.8094 H           1 MOL       0.3180
     80 H33        10.0540   -9.8298   25.6074 H           1 MOL       0.3180
     81 H34        12.5360   -8.6837   23.4333 H           1 MOL       0.0599
     82 H35        14.1840   -8.6409   21.7346 H           1 MOL       0.0557
@<TRIPOS>BOND
     1     1     3   1
     2     1     7   2
     3     1     8   2
     4    14     1  am
     5    12     2   1
     6     3     9  ar
     7     3    10  ar
     8     5     4   1
     9     6     5   1
    10    11     6  ar
    11    12     6  ar
    12     9    11  ar
    13    10    12  ar
    14    13    15   2
    15    25    13   1
    16    13    30  am
    17    25    14   1
    18    16    17   1
    19    29    16   1
    20    17    18  ar
    21    17    22  ar
    22    18    19  ar
    23    19    20  ar
    24    21    20  ar
    25    20    23   1
    26    22    21  ar
    27    23    24   3
    28    26    25   1
    29    27    26   1
    30    27    28   2
    31    27    29  am
    32    30    31   1
    33    30    36   1
    34    31    32   1
    35    31    34   1
    36    32    33   2
    37    32    37  am
    38    34    35   1
    39    35    36   1
    40    37    38   1
    41    38    39   1
    42    39    40  ar
    43    39    47  ar
    44    40    41  ar
    45    41    42  ar
    46    42    43   1
    47    42    46  ar
    48    43    44  ar
    49    43    45  ar
    50    46    47  ar
    51     4    48   1
    52     4    49   1
    53     4    50   1
    54     9    51   1
    55    10    52   1
    56    11    53   1
    57    14    54   1
    58    16    55   1
    59    16    56   1
    60    18    57   1
    61    19    58   1
    62    21    59   1
    63    22    60   1
    64    25    61   1
    65    26    62   1
    66    26    63   1
    67    29    64   1
    68    31    65   1
    69    34    66   1
    70    34    67   1
    71    35    68   1
    72    35    69   1
    73    36    70   1
    74    36    71   1
    75    37    72   1
    76    38    73   1
    77    38    74   1
    78    40    75   1
    79    41    76   1
    80    44    77   1
    81    44    78   1
    82    45    79   1
    83    45    80   1
    84    46    81   1
    85    47    82   1
@<TRIPOS>SUBSTRUCTURE
     1  MOL      2

