@<TRIPOS>MOLECULE
3utu_ligand_087
    82    85
SMALL
GAST_HUCK
****
This file was generated by PARSER (from files_GN.cpp)

@<TRIPOS>ATOM
      1 S8         19.5904  -16.1494   22.4729 S.o2        1 MOL       0.0657
      2 CL         24.2697  -16.1582   25.1845 Cl          1 MOL      -0.0788
      3 C35        20.8723  -15.2867   23.2698 C.ar        1 MOL       0.0977
      4 C10        25.1368  -12.9116   24.2949 C.3         1 MOL       0.0596
      5 O9         23.9798  -13.1455   25.1181 O.3         1 MOL      -0.3203
      6 C5         22.9987  -13.8681   24.4907 C.ar        1 MOL       0.1052
      7 O1         19.9709  -16.0772   20.9302 O.2         1 MOL      -0.1516
      8 O10        19.5706  -17.6840   22.9054 O.2         1 MOL      -0.1516
      9 C7         20.8630  -13.8765   23.2974 C.ar        1 MOL      -0.0438
     10 C3         21.9493  -15.9826   23.8581 C.ar        1 MOL      -0.0300
     11 C6         21.9180  -13.1723   23.9074 C.ar        1 MOL      -0.0306
     12 C4         23.0062  -15.2809   24.4757 C.ar        1 MOL       0.0696
     13 C13        16.5858  -14.0645   21.4808 C.2         1 MOL       0.2048
     14 N11        18.0683  -15.4437   22.7072 N.am        1 MOL      -0.2244
     15 O14        16.4588  -13.3570   22.4799 O.2         1 MOL      -0.3945
     16 C15        16.1045  -18.0564   25.4739 C.3         1 MOL       0.0687
     17 C31        17.5483  -17.9642   25.8049 C.ar        1 MOL      -0.0116
     18 C32        18.0807  -16.7708   26.3457 C.ar        1 MOL      -0.0467
     19 C33        19.4291  -16.6960   26.7455 C.ar        1 MOL      -0.0334
     20 C44        20.2730  -17.8190   26.6023 C.ar        1 MOL       0.0883
     21 C8         19.7620  -18.9993   26.0206 C.ar        1 MOL      -0.0334
     22 C9         18.4127  -19.0670   25.6255 C.ar        1 MOL      -0.0467
     23 C40        21.4979  -17.7835   27.0457 C.1         1 MOL       0.0934
     24 N63        22.5717  -17.7598   27.4526 N.1         1 MOL      -0.3338
     25 C45        17.0022  -15.4486   21.7461 C.3         1 MOL       0.1430
     26 C12        15.7625  -16.3187   22.1650 C.3         1 MOL       0.0742
     27 C46        16.0607  -17.3674   23.1186 C.2         1 MOL       0.1821
     28 O22        16.6758  -18.3588   22.7325 O.2         1 MOL      -0.3967
     29 N14        15.7464  -17.1979   24.3953 N.am        1 MOL      -0.2739
     30 N15        16.1771  -13.5754   20.2911 N.am        1 MOL      -0.2500
     31 C16        15.6153  -12.2573   20.1162 C.3         1 MOL       0.1338
     32 C17        14.4387  -11.9951   20.9498 C.2         1 MOL       0.2037
     33 O18        14.5148  -11.1102   21.7912 O.2         1 MOL      -0.3944
     34 C34        15.2900  -12.1216   18.6051 C.3         1 MOL      -0.0104
     35 C1         16.1597  -13.1927   17.9478 C.3         1 MOL      -0.0281
     36 C2         16.3150  -14.2630   19.0405 C.3         1 MOL       0.0369
     37 N19        13.3563  -12.7644   20.8303 N.am        1 MOL      -0.2737
     38 C20        12.0781  -12.6923   21.4768 C.3         1 MOL       0.0645
     39 C21        11.7711  -11.4832   22.2919 C.ar        1 MOL      -0.0210
     40 C26        11.5905  -11.5654   23.6912 C.ar        1 MOL      -0.0584
     41 C25        11.4120  -10.4018   24.4570 C.ar        1 MOL      -0.0633
     42 C24        11.4132   -9.1228   23.8468 C.ar        1 MOL       0.0188
     43 C27        11.3338   -7.9724   24.6162 C.cat       1 MOL       0.2318
     44 N29        10.4000   -7.8059   25.4766 N.pl3       1 MOL      -0.2729
     45 N28        12.1937   -7.0281   24.4999 N.pl3       1 MOL      -0.2729
     46 C23        11.5616   -9.0507   22.4417 C.ar        1 MOL      -0.0633
     47 C22        11.7022  -10.2191   21.6715 C.ar        1 MOL      -0.0584
     48 H1         25.8270  -12.2769   24.8504 H           1 MOL       0.0578
     49 H2         24.8731  -12.3995   23.3652 H           1 MOL       0.0578
     50 H3         25.6516  -13.8465   24.0625 H           1 MOL       0.0578
     51 H4         20.0950  -13.3515   22.8742 H           1 MOL       0.0610
     52 H5         21.9709  -17.0050   23.8398 H           1 MOL       0.0614
     53 H6         21.9000  -12.1526   23.9240 H           1 MOL       0.0542
     54 H7         17.8773  -15.0989   23.5960 H           1 MOL       0.1706
     55 H8         15.5367  -17.7457   26.3514 H           1 MOL       0.0704
     56 H9         15.7961  -19.0785   25.2459 H           1 MOL       0.0704
     57 H10        17.4821  -15.9519   26.4764 H           1 MOL       0.0584
     58 H11        19.7792  -15.8245   27.1606 H           1 MOL       0.0701
     59 H12        20.3586  -19.8263   25.9004 H           1 MOL       0.0701
     60 H13        18.0643  -19.9381   25.2190 H           1 MOL       0.0584
     61 H14        17.3921  -15.9046   20.8336 H           1 MOL       0.0779
     62 H15        15.3302  -16.7754   21.2690 H           1 MOL       0.0547
     63 H16        14.9705  -15.6817   22.5779 H           1 MOL       0.0547
     64 H17        15.2510  -16.3911   24.6196 H           1 MOL       0.1881
     65 H18        16.4085  -11.5333   20.3523 H           1 MOL       0.0802
     66 H19        15.5277  -11.1252   18.2282 H           1 MOL       0.0313
     67 H20        14.2416  -12.3365   18.3762 H           1 MOL       0.0313
     68 H21        17.1374  -12.7722   17.6966 H           1 MOL       0.0287
     69 H22        15.7005  -13.6004   17.0438 H           1 MOL       0.0287
     70 H23        15.5387  -15.0311   18.9513 H           1 MOL       0.0524
     71 H24        17.3001  -14.7224   18.9251 H           1 MOL       0.0524
     72 H25        13.4339  -13.4983   20.2028 H           1 MOL       0.1878
     73 H26        11.9809  -13.6007   22.0750 H           1 MOL       0.0683
     74 H27        11.3262  -12.7550   20.6878 H           1 MOL       0.0683
     75 H28        11.6247  -12.4703   24.1658 H           1 MOL       0.0557
     76 H29        11.3229  -10.4913   25.4731 H           1 MOL       0.0599
     77 H30        10.3750   -7.0311   25.9924 H           1 MOL       0.3180
     78 H31         9.7350   -8.4560   25.5822 H           1 MOL       0.3180
     79 H32        12.8942   -7.1059   23.8818 H           1 MOL       0.3180
     80 H33        12.1268   -6.2650   25.0343 H           1 MOL       0.3180
     81 H34        11.5525   -8.1484   21.9640 H           1 MOL       0.0599
     82 H35        11.8217  -10.1312   20.6592 H           1 MOL       0.0557
@<TRIPOS>BOND
     1     1     3   1
     2     1     7   2
     3     1     8   2
     4    14     1  am
     5    12     2   1
     6     3     9  ar
     7     3    10  ar
     8     5     4   1
     9     6     5   1
    10    11     6  ar
    11    12     6  ar
    12     9    11  ar
    13    10    12  ar
    14    13    15   2
    15    25    13   1
    16    13    30  am
    17    25    14   1
    18    16    17   1
    19    29    16   1
    20    17    18  ar
    21    17    22  ar
    22    18    19  ar
    23    19    20  ar
    24    21    20  ar
    25    20    23   1
    26    22    21  ar
    27    23    24   3
    28    26    25   1
    29    27    26   1
    30    27    28   2
    31    27    29  am
    32    30    31   1
    33    30    36   1
    34    31    32   1
    35    31    34   1
    36    32    33   2
    37    32    37  am
    38    34    35   1
    39    35    36   1
    40    37    38   1
    41    38    39   1
    42    39    40  ar
    43    39    47  ar
    44    40    41  ar
    45    41    42  ar
    46    42    43   1
    47    42    46  ar
    48    43    44  ar
    49    43    45  ar
    50    46    47  ar
    51     4    48   1
    52     4    49   1
    53     4    50   1
    54     9    51   1
    55    10    52   1
    56    11    53   1
    57    14    54   1
    58    16    55   1
    59    16    56   1
    60    18    57   1
    61    19    58   1
    62    21    59   1
    63    22    60   1
    64    25    61   1
    65    26    62   1
    66    26    63   1
    67    29    64   1
    68    31    65   1
    69    34    66   1
    70    34    67   1
    71    35    68   1
    72    35    69   1
    73    36    70   1
    74    36    71   1
    75    37    72   1
    76    38    73   1
    77    38    74   1
    78    40    75   1
    79    41    76   1
    80    44    77   1
    81    44    78   1
    82    45    79   1
    83    45    80   1
    84    46    81   1
    85    47    82   1
@<TRIPOS>SUBSTRUCTURE
     1  MOL      2

