@<TRIPOS>MOLECULE
3utu_ligand_010
    82    85
SMALL
GAST_HUCK
****
This file was generated by PARSER (from files_GN.cpp)

@<TRIPOS>ATOM
      1 S8         19.5385  -17.2661   23.6959 S.o2        1 MOL       0.0657
      2 CL         23.7784  -20.5805   23.1338 Cl          1 MOL      -0.0788
      3 C35        20.6603  -18.1161   22.6717 C.ar        1 MOL       0.0977
      4 C10        24.5170  -18.9877   19.6540 C.3         1 MOL       0.0596
      5 O9         23.5693  -19.9147   20.2144 O.3         1 MOL      -0.3203
      6 C5         22.6259  -19.3333   21.0273 C.ar        1 MOL       0.1052
      7 O1         18.7777  -18.3027   24.6347 O.2         1 MOL      -0.1516
      8 O10        20.4178  -16.4409   24.7424 O.2         1 MOL      -0.1516
      9 C7         20.6455  -17.9153   21.2776 C.ar        1 MOL      -0.0438
     10 C3         21.6340  -18.9742   23.2334 C.ar        1 MOL      -0.0300
     11 C6         21.6224  -18.5199   20.4615 C.ar        1 MOL      -0.0306
     12 C4         22.6097  -19.5828   22.4170 C.ar        1 MOL       0.0696
     13 C13        19.6227  -14.2881   22.0567 C.2         1 MOL       0.2048
     14 N11        18.3971  -16.2684   22.9521 N.am        1 MOL      -0.2244
     15 O14        20.6393  -14.9934   22.0815 O.2         1 MOL      -0.3945
     16 C15        20.5753  -12.6734   26.2655 C.3         1 MOL       0.0687
     17 C31        21.8776  -13.1883   25.7657 C.ar        1 MOL      -0.0116
     18 C32        22.2625  -14.5259   25.9977 C.ar        1 MOL      -0.0467
     19 C33        23.4196  -15.0570   25.4017 C.ar        1 MOL      -0.0334
     20 C44        24.2422  -14.2394   24.5960 C.ar        1 MOL       0.0883
     21 C8         23.8941  -12.8835   24.4031 C.ar        1 MOL      -0.0334
     22 C9         22.7134  -12.3723   24.9720 C.ar        1 MOL      -0.0467
     23 C40        25.2948  -14.7364   24.0115 C.1         1 MOL       0.0934
     24 N63        26.2161  -15.1791   23.4868 N.1         1 MOL      -0.3338
     25 C45        18.4283  -14.8381   22.7345 C.3         1 MOL       0.1430
     26 C12        17.8921  -14.0714   23.9907 C.3         1 MOL       0.0742
     27 C46        18.8008  -13.9576   25.1218 C.2         1 MOL       0.1821
     28 O22        18.7807  -14.8319   25.9791 O.2         1 MOL      -0.3967
     29 N14        19.5754  -12.8855   25.2605 N.am        1 MOL      -0.2739
     30 N15        19.6866  -13.1600   21.3157 N.am        1 MOL      -0.2500
     31 C16        18.7292  -12.0724   21.3040 C.3         1 MOL       0.1338
     32 C17        17.4454  -12.3336   20.6624 C.2         1 MOL       0.2037
     33 O18        17.2642  -13.3934   20.0672 O.2         1 MOL      -0.3944
     34 C34        19.4692  -10.9189   20.5726 C.3         1 MOL      -0.0104
     35 C1         20.4815  -11.6265   19.6684 C.3         1 MOL      -0.0281
     36 C2         20.8231  -12.8792   20.4777 C.3         1 MOL       0.0369
     37 N19        16.5333  -11.3669   20.6589 N.am        1 MOL      -0.2737
     38 C20        15.2098  -11.4171   20.1126 C.3         1 MOL       0.0645
     39 C21        14.2181  -11.3192   21.2152 C.ar        1 MOL      -0.0210
     40 C26        14.0266  -10.0982   21.9002 C.ar        1 MOL      -0.0584
     41 C25        13.0569   -9.9834   22.9138 C.ar        1 MOL      -0.0633
     42 C24        12.2401  -11.0836   23.2889 C.ar        1 MOL       0.0188
     43 C27        11.2166  -10.9511   24.2469 C.cat       1 MOL       0.2318
     44 N29        10.6942   -9.8230   24.5493 N.pl3       1 MOL      -0.2729
     45 N28        10.7087  -11.9483   24.8647 N.pl3       1 MOL      -0.2729
     46 C23        12.4760  -12.3146   22.6206 C.ar        1 MOL      -0.0633
     47 C22        13.4383  -12.4289   21.6015 C.ar        1 MOL      -0.0584
     48 H1         25.2461  -19.5556   19.0749 H           1 MOL       0.0578
     49 H2         25.0547  -18.4389   20.4317 H           1 MOL       0.0578
     50 H3         24.0299  -18.2789   18.9803 H           1 MOL       0.0578
     51 H4         19.9396  -17.3190   20.8446 H           1 MOL       0.0610
     52 H5         21.6448  -19.1462   24.2395 H           1 MOL       0.0614
     53 H6         21.6125  -18.3465   19.4559 H           1 MOL       0.0542
     54 H7         17.5250  -16.6868   22.8193 H           1 MOL       0.1706
     55 H8         20.6434  -11.6004   26.4591 H           1 MOL       0.0704
     56 H9         20.2985  -13.1399   27.2154 H           1 MOL       0.0704
     57 H10        21.6820  -15.1362   26.5789 H           1 MOL       0.0584
     58 H11        23.6494  -16.0445   25.5513 H           1 MOL       0.0701
     59 H12        24.4767  -12.2692   23.8270 H           1 MOL       0.0701
     60 H13        22.4591  -11.4009   24.7888 H           1 MOL       0.0584
     61 H14        17.6283  -14.7242   21.9999 H           1 MOL       0.0779
     62 H15        16.9681  -14.5594   24.3262 H           1 MOL       0.0547
     63 H16        17.5942  -13.0627   23.6780 H           1 MOL       0.0547
     64 H17        19.5202  -12.2184   24.5582 H           1 MOL       0.1881
     65 H18        18.5465  -11.7729   22.3462 H           1 MOL       0.0802
     66 H19        19.9924  -10.2885   21.2935 H           1 MOL       0.0313
     67 H20        18.8029  -10.2766   19.9907 H           1 MOL       0.0313
     68 H21        21.3595  -11.0089   19.4658 H           1 MOL       0.0287
     69 H22        20.0086  -11.8970   18.7191 H           1 MOL       0.0287
     70 H23        21.0261  -13.7033   19.7878 H           1 MOL       0.0524
     71 H24        21.7106  -12.6928   21.0922 H           1 MOL       0.0524
     72 H25        16.7781  -10.5315   21.0968 H           1 MOL       0.1878
     73 H26        15.0520  -12.3234   19.5188 H           1 MOL       0.0683
     74 H27        15.0734  -10.5696   19.4371 H           1 MOL       0.0683
     75 H28        14.5830   -9.2753   21.6528 H           1 MOL       0.0557
     76 H29        12.9605   -9.0774   23.3774 H           1 MOL       0.0599
     77 H30         9.9934   -9.7812   25.1697 H           1 MOL       0.3180
     78 H31        10.9807   -9.0358   24.1357 H           1 MOL       0.3180
     79 H32        11.0152  -12.8182   24.7120 H           1 MOL       0.3180
     80 H33        10.0037  -11.8144   25.4662 H           1 MOL       0.3180
     81 H34        11.9232  -13.1454   22.8412 H           1 MOL       0.0599
     82 H35        13.5577  -13.3305   21.1319 H           1 MOL       0.0557
@<TRIPOS>BOND
     1     1     3   1
     2     1     7   2
     3     1     8   2
     4    14     1  am
     5    12     2   1
     6     3     9  ar
     7     3    10  ar
     8     5     4   1
     9     6     5   1
    10    11     6  ar
    11    12     6  ar
    12     9    11  ar
    13    10    12  ar
    14    13    15   2
    15    25    13   1
    16    13    30  am
    17    25    14   1
    18    16    17   1
    19    29    16   1
    20    17    18  ar
    21    17    22  ar
    22    18    19  ar
    23    19    20  ar
    24    21    20  ar
    25    20    23   1
    26    22    21  ar
    27    23    24   3
    28    26    25   1
    29    27    26   1
    30    27    28   2
    31    27    29  am
    32    30    31   1
    33    30    36   1
    34    31    32   1
    35    31    34   1
    36    32    33   2
    37    32    37  am
    38    34    35   1
    39    35    36   1
    40    37    38   1
    41    38    39   1
    42    39    40  ar
    43    39    47  ar
    44    40    41  ar
    45    41    42  ar
    46    42    43   1
    47    42    46  ar
    48    43    44  ar
    49    43    45  ar
    50    46    47  ar
    51     4    48   1
    52     4    49   1
    53     4    50   1
    54     9    51   1
    55    10    52   1
    56    11    53   1
    57    14    54   1
    58    16    55   1
    59    16    56   1
    60    18    57   1
    61    19    58   1
    62    21    59   1
    63    22    60   1
    64    25    61   1
    65    26    62   1
    66    26    63   1
    67    29    64   1
    68    31    65   1
    69    34    66   1
    70    34    67   1
    71    35    68   1
    72    35    69   1
    73    36    70   1
    74    36    71   1
    75    37    72   1
    76    38    73   1
    77    38    74   1
    78    40    75   1
    79    41    76   1
    80    44    77   1
    81    44    78   1
    82    45    79   1
    83    45    80   1
    84    46    81   1
    85    47    82   1
@<TRIPOS>SUBSTRUCTURE
     1  MOL      2

