@<TRIPOS>MOLECULE
3utu_ligand_014
    82    85
SMALL
GAST_HUCK
****
This file was generated by PARSER (from files_GN.cpp)

@<TRIPOS>ATOM
      1 S8         20.4860  -12.9174   26.1748 S.o2        1 MOL       0.0657
      2 CL         22.8414  -17.7878   25.9872 Cl          1 MOL      -0.0788
      3 C35        21.8871  -13.9047   25.8277 C.ar        1 MOL       0.0977
      4 C10        26.0012  -16.7088   26.0137 C.3         1 MOL       0.0596
      5 O9         25.2228  -16.2883   24.8796 O.3         1 MOL      -0.3203
      6 C5         24.1281  -15.5371   25.2204 C.ar        1 MOL       0.1052
      7 O1         19.6707  -13.3934   27.4543 O.2         1 MOL      -0.1516
      8 O10        20.9651  -11.4411   26.5310 O.2         1 MOL      -0.1516
      9 C7         23.0675  -13.3329   25.3170 C.ar        1 MOL      -0.0438
     10 C3         21.8325  -15.3043   26.0306 C.ar        1 MOL      -0.0300
     11 C6         24.1761  -14.1432   25.0047 C.ar        1 MOL      -0.0306
     12 C4         22.9438  -16.1159   25.7270 C.ar        1 MOL       0.0696
     13 C13        18.2226  -13.2090   22.9404 C.2         1 MOL       0.2048
     14 N11        19.4325  -12.7197   24.8768 N.am        1 MOL      -0.2244
     15 O14        17.0849  -12.7957   23.1463 O.2         1 MOL      -0.3945
     16 C15        16.0003  -17.6099   23.4526 C.3         1 MOL       0.0687
     17 C31        16.1388  -17.6279   21.9734 C.ar        1 MOL      -0.0116
     18 C32        17.3056  -18.1433   21.3588 C.ar        1 MOL      -0.0467
     19 C33        17.4570  -18.1086   19.9608 C.ar        1 MOL      -0.0334
     20 C44        16.4444  -17.5476   19.1526 C.ar        1 MOL       0.0883
     21 C8         15.2685  -17.0450   19.7569 C.ar        1 MOL      -0.0334
     22 C9         15.1236  -17.0850   21.1558 C.ar        1 MOL      -0.0467
     23 C40        16.6027  -17.4764   17.8641 C.1         1 MOL       0.0934
     24 N63        16.7493  -17.4075   16.7237 N.1         1 MOL      -0.3338
     25 C45        18.9078  -13.7992   24.1012 C.3         1 MOL       0.1430
     26 C12        18.0066  -14.7668   24.9458 C.3         1 MOL       0.0742
     27 C46        17.6988  -16.0252   24.2796 C.2         1 MOL       0.1821
     28 O22        18.6167  -16.8019   24.0667 O.2         1 MOL      -0.3967
     29 N14        16.4367  -16.3617   24.0127 N.am        1 MOL      -0.2739
     30 N15        18.8011  -12.9355   21.7559 N.am        1 MOL      -0.2500
     31 C16        18.1318  -12.2536   20.6687 C.3         1 MOL       0.1338
     32 C17        16.8557  -12.8217   20.2280 C.2         1 MOL       0.2037
     33 O18        16.7537  -14.0350   20.1301 O.2         1 MOL      -0.3944
     34 C34        19.1483  -12.2529   19.5039 C.3         1 MOL      -0.0104
     35 C1         20.5062  -12.3513   20.2026 C.3         1 MOL      -0.0281
     36 C2         20.1909  -13.1649   21.4683 C.3         1 MOL       0.0369
     37 N19        15.8514  -12.0099   19.9104 N.am        1 MOL      -0.2737
     38 C20        14.5463  -12.3743   19.4536 C.3         1 MOL       0.0645
     39 C21        13.5618  -12.0414   20.5117 C.ar        1 MOL      -0.0210
     40 C26        13.5222  -12.8130   21.6936 C.ar        1 MOL      -0.0584
     41 C25        12.6170  -12.4991   22.7232 C.ar        1 MOL      -0.0633
     42 C24        11.7404  -11.3898   22.6266 C.ar        1 MOL       0.0188
     43 C27        10.8527  -11.0689   23.6653 C.cat       1 MOL       0.2318
     44 N29        10.2991  -11.9689   24.3853 N.pl3       1 MOL      -0.2729
     45 N28        10.5340   -9.8674   23.9567 N.pl3       1 MOL      -0.2729
     46 C23        11.7890  -10.6213   21.4343 C.ar        1 MOL      -0.0633
     47 C22        12.6781  -10.9485   20.3896 C.ar        1 MOL      -0.0584
     48 H1         26.9095  -17.1921   25.6499 H           1 MOL       0.0578
     49 H2         25.4500  -17.4319   26.6191 H           1 MOL       0.0578
     50 H3         26.2936  -15.8624   26.6419 H           1 MOL       0.0578
     51 H4         23.1407  -12.3235   25.1601 H           1 MOL       0.0610
     52 H5         20.9792  -15.7298   26.3948 H           1 MOL       0.0614
     53 H6         25.0296  -13.7198   24.6359 H           1 MOL       0.0542
     54 H7         19.4403  -11.8428   24.4602 H           1 MOL       0.1706
     55 H8         16.5573  -18.4306   23.9127 H           1 MOL       0.0704
     56 H9         14.9535  -17.7534   23.7245 H           1 MOL       0.0704
     57 H10        18.0642  -18.5277   21.9243 H           1 MOL       0.0584
     58 H11        18.3190  -18.4781   19.5470 H           1 MOL       0.0701
     59 H12        14.5233  -16.6292   19.1914 H           1 MOL       0.0701
     60 H13        14.2712  -16.7038   21.5744 H           1 MOL       0.0584
     61 H14        19.7626  -14.3895   23.7571 H           1 MOL       0.0779
     62 H15        17.0847  -14.2486   25.2357 H           1 MOL       0.0547
     63 H16        18.5232  -15.0273   25.8765 H           1 MOL       0.0547
     64 H17        15.7412  -15.7271   24.2520 H           1 MOL       0.1881
     65 H18        17.9856  -11.2135   20.9901 H           1 MOL       0.0802
     66 H19        19.0693  -11.3459   18.8954 H           1 MOL       0.0313
     67 H20        19.0269  -13.1256   18.8509 H           1 MOL       0.0313
     68 H21        20.8596  -11.3492   20.4714 H           1 MOL       0.0287
     69 H22        21.2570  -12.8388   19.5736 H           1 MOL       0.0287
     70 H23        20.3630  -14.2311   21.2911 H           1 MOL       0.0524
     71 H24        20.8490  -12.8244   22.2751 H           1 MOL       0.0524
     72 H25        16.0171  -11.0587   20.0005 H           1 MOL       0.1878
     73 H26        14.4598  -13.4345   19.1999 H           1 MOL       0.0683
     74 H27        14.3479  -11.8085   18.5390 H           1 MOL       0.0683
     75 H28        14.1541  -13.6101   21.8105 H           1 MOL       0.0557
     76 H29        12.6259  -13.0887   23.5572 H           1 MOL       0.0599
     77 H30         9.6952  -11.7278   25.0559 H           1 MOL       0.3180
     78 H31        10.4655  -12.8747   24.2295 H           1 MOL       0.3180
     79 H32        10.9015   -9.1466   23.4864 H           1 MOL       0.3180
     80 H33         9.9381   -9.6969   24.6590 H           1 MOL       0.3180
     81 H34        11.1618   -9.8261   21.2980 H           1 MOL       0.0599
     82 H35        12.6790  -10.3723   19.5431 H           1 MOL       0.0557
@<TRIPOS>BOND
     1     1     3   1
     2     1     7   2
     3     1     8   2
     4    14     1  am
     5    12     2   1
     6     3     9  ar
     7     3    10  ar
     8     5     4   1
     9     6     5   1
    10    11     6  ar
    11    12     6  ar
    12     9    11  ar
    13    10    12  ar
    14    13    15   2
    15    25    13   1
    16    13    30  am
    17    25    14   1
    18    16    17   1
    19    29    16   1
    20    17    18  ar
    21    17    22  ar
    22    18    19  ar
    23    19    20  ar
    24    21    20  ar
    25    20    23   1
    26    22    21  ar
    27    23    24   3
    28    26    25   1
    29    27    26   1
    30    27    28   2
    31    27    29  am
    32    30    31   1
    33    30    36   1
    34    31    32   1
    35    31    34   1
    36    32    33   2
    37    32    37  am
    38    34    35   1
    39    35    36   1
    40    37    38   1
    41    38    39   1
    42    39    40  ar
    43    39    47  ar
    44    40    41  ar
    45    41    42  ar
    46    42    43   1
    47    42    46  ar
    48    43    44  ar
    49    43    45  ar
    50    46    47  ar
    51     4    48   1
    52     4    49   1
    53     4    50   1
    54     9    51   1
    55    10    52   1
    56    11    53   1
    57    14    54   1
    58    16    55   1
    59    16    56   1
    60    18    57   1
    61    19    58   1
    62    21    59   1
    63    22    60   1
    64    25    61   1
    65    26    62   1
    66    26    63   1
    67    29    64   1
    68    31    65   1
    69    34    66   1
    70    34    67   1
    71    35    68   1
    72    35    69   1
    73    36    70   1
    74    36    71   1
    75    37    72   1
    76    38    73   1
    77    38    74   1
    78    40    75   1
    79    41    76   1
    80    44    77   1
    81    44    78   1
    82    45    79   1
    83    45    80   1
    84    46    81   1
    85    47    82   1
@<TRIPOS>SUBSTRUCTURE
     1  MOL      2

