@<TRIPOS>MOLECULE
3utu_ligand_083
    82    85
SMALL
GAST_HUCK
****
This file was generated by PARSER (from files_GN.cpp)

@<TRIPOS>ATOM
      1 S8         16.2651  -17.2970   23.4794 S.o2        1 MOL       0.0657
      2 CL         20.9653  -19.6937   22.3549 Cl          1 MOL      -0.0788
      3 C35        17.1716  -18.4529   22.5375 C.ar        1 MOL       0.0977
      4 C10        20.1638  -20.1772   18.9958 C.3         1 MOL       0.0596
      5 O9         19.4687  -20.9150   20.0200 O.3         1 MOL      -0.3203
      6 C5         18.7381  -20.1169   20.8609 C.ar        1 MOL       0.1052
      7 O1         14.7314  -17.7161   23.5448 O.2         1 MOL      -0.1516
      8 O10        16.8114  -17.2432   24.9719 O.2         1 MOL      -0.1516
      9 C7         16.5743  -19.1510   21.4696 C.ar        1 MOL      -0.0438
     10 C3         18.5477  -18.6337   22.7939 C.ar        1 MOL      -0.0300
     11 C6         17.3491  -19.9819   20.6414 C.ar        1 MOL      -0.0306
     12 C4         19.3278  -19.4727   21.9765 C.ar        1 MOL       0.0696
     13 C13        17.6665  -13.8800   22.1696 C.2         1 MOL       0.2048
     14 N11        16.2803  -15.7324   22.8560 N.am        1 MOL      -0.2244
     15 O14        16.9789  -13.1630   22.8947 O.2         1 MOL      -0.3945
     16 C15        15.4498  -17.9298   18.0335 C.3         1 MOL       0.0687
     17 C31        16.4968  -17.8813   16.9739 C.ar        1 MOL      -0.0116
     18 C32        16.6201  -16.7528   16.1327 C.ar        1 MOL      -0.0467
     19 C33        17.6662  -16.6604   15.1953 C.ar        1 MOL      -0.0334
     20 C44        18.6060  -17.7078   15.0724 C.ar        1 MOL       0.0883
     21 C8         18.4743  -18.8513   15.8867 C.ar        1 MOL      -0.0334
     22 C9         17.4260  -18.9396   16.8238 C.ar        1 MOL      -0.0467
     23 C40        19.5839  -17.6194   14.2191 C.1         1 MOL       0.0934
     24 N63        20.4500  -17.5379   13.4670 N.1         1 MOL      -0.3338
     25 C45        17.1841  -15.2333   21.8623 C.3         1 MOL       0.1430
     26 C12        16.4693  -15.2367   20.4643 C.3         1 MOL       0.0742
     27 C46        16.5214  -16.4909   19.7319 C.2         1 MOL       0.1821
     28 O22        17.5854  -17.0971   19.6762 O.2         1 MOL      -0.3967
     29 N14        15.5029  -16.8305   18.9503 N.am        1 MOL      -0.2739
     30 N15        18.6591  -13.3044   21.4624 N.am        1 MOL      -0.2500
     31 C16        18.8377  -11.8731   21.3169 C.3         1 MOL       0.1338
     32 C17        17.6996  -11.0712   20.8530 C.2         1 MOL       0.2037
     33 O18        17.9174   -9.8790   20.6557 O.2         1 MOL      -0.3944
     34 C34        20.0361  -11.7332   20.3350 C.3         1 MOL      -0.0104
     35 C1         20.8163  -13.0383   20.4982 C.3         1 MOL      -0.0281
     36 C2         19.7149  -14.0538   20.8297 C.3         1 MOL       0.0369
     37 N19        16.4706  -11.5569   20.7011 N.am        1 MOL      -0.2737
     38 C20        15.2915  -10.8299   20.3264 C.3         1 MOL       0.0645
     39 C21        14.3065  -10.8179   21.4446 C.ar        1 MOL      -0.0210
     40 C26        13.7296  -12.0211   21.9024 C.ar        1 MOL      -0.0584
     41 C25        12.7339  -12.0090   22.8944 C.ar        1 MOL      -0.0633
     42 C24        12.2630  -10.7950   23.4695 C.ar        1 MOL       0.0188
     43 C27        11.2054  -10.7790   24.4021 C.cat       1 MOL       0.2318
     44 N29        10.5979  -11.8330   24.7955 N.pl3       1 MOL      -0.2729
     45 N28        10.7383   -9.7056   24.9157 N.pl3       1 MOL      -0.2729
     46 C23        12.8875   -9.5983   23.0225 C.ar        1 MOL      -0.0633
     47 C22        13.8848   -9.6069   22.0326 C.ar        1 MOL      -0.0584
     48 H1         20.6682  -20.8919   18.3461 H           1 MOL       0.0578
     49 H2         20.9249  -19.5171   19.4216 H           1 MOL       0.0578
     50 H3         19.4786  -19.5852   18.3828 H           1 MOL       0.0578
     51 H4         15.5756  -19.0476   21.2736 H           1 MOL       0.0610
     52 H5         18.9896  -18.1459   23.5773 H           1 MOL       0.0614
     53 H6         16.9075  -20.4749   19.8620 H           1 MOL       0.0542
     54 H7         15.5364  -15.1614   23.1064 H           1 MOL       0.1706
     55 H8         15.5062  -18.8559   18.6118 H           1 MOL       0.0704
     56 H9         14.4723  -17.9103   17.5498 H           1 MOL       0.0704
     57 H10        15.9598  -15.9765   16.2164 H           1 MOL       0.0584
     58 H11        17.7419  -15.8200   14.6171 H           1 MOL       0.0701
     59 H12        19.1450  -19.6275   15.8201 H           1 MOL       0.0701
     60 H13        17.3576  -19.7773   17.4095 H           1 MOL       0.0584
     61 H14        18.0607  -15.8791   21.8509 H           1 MOL       0.0779
     62 H15        16.9141  -14.4974   19.7911 H           1 MOL       0.0547
     63 H16        15.4299  -14.9184   20.6010 H           1 MOL       0.0547
     64 H17        14.7179  -16.2624   18.9888 H           1 MOL       0.1881
     65 H18        19.1358  -11.4832   22.2952 H           1 MOL       0.0802
     66 H19        20.6630  -10.8654   20.5695 H           1 MOL       0.0313
     67 H20        19.7007  -11.6544   19.2908 H           1 MOL       0.0313
     68 H21        21.5223  -12.9529   21.3360 H           1 MOL       0.0287
     69 H22        21.3638  -13.3074   19.5917 H           1 MOL       0.0287
     70 H23        19.3551  -14.5315   19.9163 H           1 MOL       0.0524
     71 H24        20.1334  -14.8146   21.4963 H           1 MOL       0.0524
     72 H25        16.3411  -12.4977   20.9172 H           1 MOL       0.1878
     73 H26        14.8490  -11.3316   19.4654 H           1 MOL       0.0683
     74 H27        15.5290   -9.8128   20.0019 H           1 MOL       0.0683
     75 H28        14.0144  -12.9166   21.4990 H           1 MOL       0.0557
     76 H29        12.3406  -12.9078   23.1739 H           1 MOL       0.0599
     77 H30         9.8833  -11.7614   25.3955 H           1 MOL       0.3180
     78 H31        10.8361  -12.6822   24.4868 H           1 MOL       0.3180
     79 H32        11.0942   -8.8728   24.7012 H           1 MOL       0.3180
     80 H33        10.0113   -9.7458   25.5006 H           1 MOL       0.3180
     81 H34        12.6088   -8.6904   23.3936 H           1 MOL       0.0599
     82 H35        14.2914   -8.7180   21.7305 H           1 MOL       0.0557
@<TRIPOS>BOND
     1     1     3   1
     2     1     7   2
     3     1     8   2
     4    14     1  am
     5    12     2   1
     6     3     9  ar
     7     3    10  ar
     8     5     4   1
     9     6     5   1
    10    11     6  ar
    11    12     6  ar
    12     9    11  ar
    13    10    12  ar
    14    13    15   2
    15    25    13   1
    16    13    30  am
    17    25    14   1
    18    16    17   1
    19    29    16   1
    20    17    18  ar
    21    17    22  ar
    22    18    19  ar
    23    19    20  ar
    24    21    20  ar
    25    20    23   1
    26    22    21  ar
    27    23    24   3
    28    26    25   1
    29    27    26   1
    30    27    28   2
    31    27    29  am
    32    30    31   1
    33    30    36   1
    34    31    32   1
    35    31    34   1
    36    32    33   2
    37    32    37  am
    38    34    35   1
    39    35    36   1
    40    37    38   1
    41    38    39   1
    42    39    40  ar
    43    39    47  ar
    44    40    41  ar
    45    41    42  ar
    46    42    43   1
    47    42    46  ar
    48    43    44  ar
    49    43    45  ar
    50    46    47  ar
    51     4    48   1
    52     4    49   1
    53     4    50   1
    54     9    51   1
    55    10    52   1
    56    11    53   1
    57    14    54   1
    58    16    55   1
    59    16    56   1
    60    18    57   1
    61    19    58   1
    62    21    59   1
    63    22    60   1
    64    25    61   1
    65    26    62   1
    66    26    63   1
    67    29    64   1
    68    31    65   1
    69    34    66   1
    70    34    67   1
    71    35    68   1
    72    35    69   1
    73    36    70   1
    74    36    71   1
    75    37    72   1
    76    38    73   1
    77    38    74   1
    78    40    75   1
    79    41    76   1
    80    44    77   1
    81    44    78   1
    82    45    79   1
    83    45    80   1
    84    46    81   1
    85    47    82   1
@<TRIPOS>SUBSTRUCTURE
     1  MOL      2

