@<TRIPOS>MOLECULE
3utu_ligand_084
    82    85
SMALL
GAST_HUCK
****
This file was generated by PARSER (from files_GN.cpp)

@<TRIPOS>ATOM
      1 S8         20.0287  -16.7570   22.8673 S.o2        1 MOL       0.0657
      2 CL         24.5056  -16.1038   25.8433 Cl          1 MOL      -0.0788
      3 C35        21.3065  -15.7419   23.4752 C.ar        1 MOL       0.0977
      4 C10        25.2969  -12.8229   24.2745 C.3         1 MOL       0.0596
      5 O9         24.2050  -13.1860   25.1380 O.3         1 MOL      -0.3203
      6 C5         23.3034  -14.0419   24.5553 C.ar        1 MOL       0.1052
      7 O1         19.7111  -16.4549   21.3397 O.2         1 MOL      -0.1516
      8 O10        20.5200  -18.2705   22.8606 O.2         1 MOL      -0.1516
      9 C7         21.3116  -14.3649   23.1686 C.ar        1 MOL      -0.0438
     10 C3         22.3186  -16.2694   24.3114 C.ar        1 MOL      -0.0300
     11 C6         22.2919  -13.5205   23.7189 C.ar        1 MOL      -0.0306
     12 C4         23.3169  -15.4276   24.8444 C.ar        1 MOL       0.0696
     13 C13        17.5610  -14.7651   22.9033 C.2         1 MOL       0.2048
     14 N11        18.5985  -16.7580   23.7742 N.am        1 MOL      -0.2244
     15 O14        18.1696  -13.7001   22.8525 O.2         1 MOL      -0.3945
     16 C15        18.6318  -17.6583   27.8921 C.3         1 MOL       0.0687
     17 C31        17.3180  -18.3674   27.9260 C.ar        1 MOL      -0.0116
     18 C32        16.8436  -18.9032   29.1485 C.ar        1 MOL      -0.0467
     19 C33        15.5961  -19.5530   29.2243 C.ar        1 MOL      -0.0334
     20 C44        14.8000  -19.6950   28.0672 C.ar        1 MOL       0.0883
     21 C8         15.2761  -19.1978   26.8358 C.ar        1 MOL      -0.0334
     22 C9         16.5234  -18.5521   26.7694 C.ar        1 MOL      -0.0467
     23 C40        13.6349  -20.2770   28.1340 C.1         1 MOL       0.0934
     24 N63        12.6086  -20.7889   28.1880 N.1         1 MOL      -0.3338
     25 C45        17.8003  -15.6063   24.0870 C.3         1 MOL       0.1430
     26 C12        18.3323  -14.8613   25.3628 C.3         1 MOL       0.0742
     27 C46        18.1571  -15.6179   26.5994 C.2         1 MOL       0.1821
     28 O22        17.3317  -15.2328   27.4242 O.2         1 MOL      -0.3967
     29 N14        18.8247  -16.7502   26.7973 N.am        1 MOL      -0.2739
     30 N15        16.7790  -15.1210   21.8641 N.am        1 MOL      -0.2500
     31 C16        16.6038  -14.3112   20.6685 C.3         1 MOL       0.1338
     32 C17        15.8687  -13.0620   20.8794 C.2         1 MOL       0.2037
     33 O18        15.6256  -12.6841   22.0234 O.2         1 MOL      -0.3944
     34 C34        15.9351  -15.2887   19.6629 C.3         1 MOL      -0.0104
     35 C1         15.1756  -16.2814   20.5431 C.3         1 MOL      -0.0281
     36 C2         16.0437  -16.3569   21.8055 C.3         1 MOL       0.0369
     37 N19        15.5269  -12.3141   19.8334 N.am        1 MOL      -0.2737
     38 C20        14.9202  -11.0138   19.8286 C.3         1 MOL       0.0645
     39 C21        13.8125  -10.8376   20.8090 C.ar        1 MOL      -0.0210
     40 C26        13.9228   -9.8972   21.8558 C.ar        1 MOL      -0.0584
     41 C25        12.9506   -9.8343   22.8677 C.ar        1 MOL      -0.0633
     42 C24        11.8410  -10.7176   22.8692 C.ar        1 MOL       0.0188
     43 C27        10.9034  -10.6839   23.9021 C.cat       1 MOL       0.2318
     44 N29        10.5125   -9.5819   24.4237 N.pl3       1 MOL      -0.2729
     45 N28        10.3831  -11.7513   24.3881 N.pl3       1 MOL      -0.2729
     46 C23        11.7203  -11.6335   21.7952 C.ar        1 MOL      -0.0633
     47 C22        12.6832  -11.6820   20.7692 C.ar        1 MOL      -0.0584
     48 H1         25.9448  -12.1306   24.8088 H           1 MOL       0.0578
     49 H2         24.9408  -12.3196   23.3712 H           1 MOL       0.0578
     50 H3         25.8841  -13.7005   23.9991 H           1 MOL       0.0578
     51 H4         20.5929  -13.9613   22.5545 H           1 MOL       0.0610
     52 H5         22.3249  -17.2675   24.5413 H           1 MOL       0.0614
     53 H6         22.2650  -12.5190   23.5179 H           1 MOL       0.0542
     54 H7         18.4013  -17.5738   24.2634 H           1 MOL       0.1706
     55 H8         19.4125  -18.4198   27.8301 H           1 MOL       0.0704
     56 H9         18.7814  -17.1057   28.8262 H           1 MOL       0.0704
     57 H10        17.3989  -18.8104   30.0020 H           1 MOL       0.0584
     58 H11        15.2745  -19.9123   30.1298 H           1 MOL       0.0701
     59 H12        14.7203  -19.2952   25.9794 H           1 MOL       0.0701
     60 H13        16.8436  -18.2142   25.8594 H           1 MOL       0.0584
     61 H14        16.8213  -15.9876   24.3845 H           1 MOL       0.0779
     62 H15        17.7916  -13.9115   25.4536 H           1 MOL       0.0547
     63 H16        19.3914  -14.6167   25.2422 H           1 MOL       0.0547
     64 H17        19.4924  -16.9976   26.1371 H           1 MOL       0.1881
     65 H18        17.5895  -14.0465   20.2667 H           1 MOL       0.0802
     66 H19        16.7077  -15.8281   19.1014 H           1 MOL       0.0313
     67 H20        15.2645  -14.8054   18.9475 H           1 MOL       0.0313
     68 H21        15.0638  -17.2540   20.0590 H           1 MOL       0.0287
     69 H22        14.1882  -15.8824   20.7891 H           1 MOL       0.0287
     70 H23        15.3881  -16.4850   22.6723 H           1 MOL       0.0524
     71 H24        16.7318  -17.2063   21.7391 H           1 MOL       0.0524
     72 H25        15.7436  -12.6795   18.9599 H           1 MOL       0.1878
     73 H26        14.5276  -10.8290   18.8272 H           1 MOL       0.0683
     74 H27        15.7197  -10.2870   19.9960 H           1 MOL       0.0683
     75 H28        14.7326   -9.2772   21.9092 H           1 MOL       0.0557
     76 H29        13.0893   -9.1651   23.6286 H           1 MOL       0.0599
     77 H30         9.8787   -9.5816   25.1104 H           1 MOL       0.3180
     78 H31        10.8515   -8.7666   24.1170 H           1 MOL       0.3180
     79 H32        10.6279  -12.5954   24.0667 H           1 MOL       0.3180
     80 H33         9.7501  -11.6874   25.0728 H           1 MOL       0.3180
     81 H34        10.9279  -12.2737   21.7452 H           1 MOL       0.0599
     82 H35        12.5763  -12.3672   20.0154 H           1 MOL       0.0557
@<TRIPOS>BOND
     1     1     3   1
     2     1     7   2
     3     1     8   2
     4    14     1  am
     5    12     2   1
     6     3     9  ar
     7     3    10  ar
     8     5     4   1
     9     6     5   1
    10    11     6  ar
    11    12     6  ar
    12     9    11  ar
    13    10    12  ar
    14    13    15   2
    15    25    13   1
    16    13    30  am
    17    25    14   1
    18    16    17   1
    19    29    16   1
    20    17    18  ar
    21    17    22  ar
    22    18    19  ar
    23    19    20  ar
    24    21    20  ar
    25    20    23   1
    26    22    21  ar
    27    23    24   3
    28    26    25   1
    29    27    26   1
    30    27    28   2
    31    27    29  am
    32    30    31   1
    33    30    36   1
    34    31    32   1
    35    31    34   1
    36    32    33   2
    37    32    37  am
    38    34    35   1
    39    35    36   1
    40    37    38   1
    41    38    39   1
    42    39    40  ar
    43    39    47  ar
    44    40    41  ar
    45    41    42  ar
    46    42    43   1
    47    42    46  ar
    48    43    44  ar
    49    43    45  ar
    50    46    47  ar
    51     4    48   1
    52     4    49   1
    53     4    50   1
    54     9    51   1
    55    10    52   1
    56    11    53   1
    57    14    54   1
    58    16    55   1
    59    16    56   1
    60    18    57   1
    61    19    58   1
    62    21    59   1
    63    22    60   1
    64    25    61   1
    65    26    62   1
    66    26    63   1
    67    29    64   1
    68    31    65   1
    69    34    66   1
    70    34    67   1
    71    35    68   1
    72    35    69   1
    73    36    70   1
    74    36    71   1
    75    37    72   1
    76    38    73   1
    77    38    74   1
    78    40    75   1
    79    41    76   1
    80    44    77   1
    81    44    78   1
    82    45    79   1
    83    45    80   1
    84    46    81   1
    85    47    82   1
@<TRIPOS>SUBSTRUCTURE
     1  MOL      2

