@<TRIPOS>MOLECULE
3utu_ligand_092
    82    85
SMALL
GAST_HUCK
****
This file was generated by PARSER (from files_GN.cpp)

@<TRIPOS>ATOM
      1 S8         16.4171  -17.3053   19.1394 S.o2        1 MOL       0.0657
      2 CL         11.3369  -17.2880   20.9998 Cl          1 MOL      -0.0788
      3 C35        14.8167  -17.9893   19.1562 C.ar        1 MOL       0.0977
      4 C10        10.0926  -19.1862   18.1606 C.3         1 MOL       0.0596
      5 O9         10.9658  -19.6722   19.1949 O.3         1 MOL      -0.3203
      6 C5         12.2071  -19.0892   19.1766 C.ar        1 MOL       0.1052
      7 O1         17.4919  -18.2973   18.5106 O.2         1 MOL      -0.1516
      8 O10        16.4085  -16.0566   18.1585 O.2         1 MOL      -0.1516
      9 C7         14.5109  -19.1068   18.3560 C.ar        1 MOL      -0.0438
     10 C3         13.8104  -17.4253   19.9707 C.ar        1 MOL      -0.0300
     11 C6         13.2166  -19.6588   18.3726 C.ar        1 MOL      -0.0306
     12 C4         12.5122  -17.9744   19.9899 C.ar        1 MOL       0.0696
     13 C13        18.5871  -15.0843   20.5018 C.2         1 MOL       0.2048
     14 N11        16.9896  -16.8652   20.6636 N.am        1 MOL      -0.2244
     15 O14        19.4400  -15.9689   20.4459 O.2         1 MOL      -0.3945
     16 C15        16.2747  -17.9766   25.0654 C.3         1 MOL       0.0687
     17 C31        16.9805  -17.9698   26.3714 C.ar        1 MOL      -0.0116
     18 C32        17.5352  -19.1541   26.9128 C.ar        1 MOL      -0.0467
     19 C33        18.2030  -19.1369   28.1490 C.ar        1 MOL      -0.0334
     20 C44        18.3277  -17.9315   28.8758 C.ar        1 MOL       0.0883
     21 C8         17.7845  -16.7419   28.3384 C.ar        1 MOL      -0.0334
     22 C9         17.1161  -16.7664   27.1015 C.ar        1 MOL      -0.0467
     23 C40        18.9351  -17.9173   30.0265 C.1         1 MOL       0.0934
     24 N63        19.4683  -17.9039   31.0460 N.1         1 MOL      -0.3338
     25 C45        17.2783  -15.5083   21.0391 C.3         1 MOL       0.1430
     26 C12        17.2304  -15.2954   22.5910 C.3         1 MOL       0.0742
     27 C46        16.3759  -16.2148   23.3350 C.2         1 MOL       0.1821
     28 O22        15.1604  -16.1910   23.1537 O.2         1 MOL      -0.3967
     29 N14        16.9412  -17.0851   24.1673 N.am        1 MOL      -0.2739
     30 N15        18.9799  -13.8221   20.2176 N.am        1 MOL      -0.2500
     31 C16        18.1719  -12.6252   20.2781 C.3         1 MOL       0.1338
     32 C17        16.9376  -12.6514   19.4934 C.2         1 MOL       0.2037
     33 O18        16.9735  -13.0076   18.3190 O.2         1 MOL      -0.3944
     34 C34        19.0961  -11.4773   19.7869 C.3         1 MOL      -0.0104
     35 C1         20.5092  -11.9873   20.0694 C.3         1 MOL      -0.0281
     36 C2         20.3591  -13.5091   19.9300 C.3         1 MOL       0.0369
     37 N19        15.7880  -12.3496   20.0861 N.am        1 MOL      -0.2737
     38 C20        14.4908  -12.3639   19.4923 C.3         1 MOL       0.0645
     39 C21        13.4971  -12.0454   20.5483 C.ar        1 MOL      -0.0210
     40 C26        12.8113  -10.8127   20.5630 C.ar        1 MOL      -0.0584
     41 C25        11.9288  -10.4954   21.6153 C.ar        1 MOL      -0.0633
     42 C24        11.7001  -11.3949   22.6864 C.ar        1 MOL       0.0188
     43 C27        10.8121  -11.0816   23.7317 C.cat       1 MOL       0.2318
     44 N29        10.4654   -9.8856   24.0191 N.pl3       1 MOL      -0.2729
     45 N28        10.2900  -11.9790   24.4736 N.pl3       1 MOL      -0.2729
     46 C23        12.3962  -12.6314   22.6551 C.ar        1 MOL      -0.0633
     47 C22        13.2795  -12.9542   21.6093 C.ar        1 MOL      -0.0584
     48 H1          9.1482  -19.7197   18.2405 H           1 MOL       0.0578
     49 H2         10.5041  -19.3727   17.1659 H           1 MOL       0.0578
     50 H3          9.8936  -18.1189   18.2776 H           1 MOL       0.0578
     51 H4         15.2204  -19.5312   17.7551 H           1 MOL       0.0610
     52 H5         14.0215  -16.6095   20.5518 H           1 MOL       0.0614
     53 H6         13.0083  -20.4752   17.7912 H           1 MOL       0.0542
     54 H7         17.3817  -17.5692   21.2066 H           1 MOL       0.1706
     55 H8         15.2287  -17.6936   25.2270 H           1 MOL       0.0704
     56 H9         16.2857  -18.9705   24.6093 H           1 MOL       0.0704
     57 H10        17.4575  -20.0385   26.4089 H           1 MOL       0.0584
     58 H11        18.5947  -20.0108   28.5174 H           1 MOL       0.0701
     59 H12        17.8559  -15.8562   28.8509 H           1 MOL       0.0701
     60 H13        16.7240  -15.8931   26.7348 H           1 MOL       0.0584
     61 H14        16.4746  -14.9086   20.6193 H           1 MOL       0.0779
     62 H15        16.8738  -14.2809   22.8001 H           1 MOL       0.0547
     63 H16        18.2502  -15.3438   23.0051 H           1 MOL       0.0547
     64 H17        17.9106  -17.1039   24.1840 H           1 MOL       0.1881
     65 H18        17.9428  -12.4403   21.3362 H           1 MOL       0.0802
     66 H19        18.8943  -10.5377   20.3117 H           1 MOL       0.0313
     67 H20        18.9966  -11.3075   18.7086 H           1 MOL       0.0313
     68 H21        20.8035  -11.7263   21.0900 H           1 MOL       0.0287
     69 H22        21.2439  -11.5801   19.3673 H           1 MOL       0.0287
     70 H23        20.6076  -13.8262   18.9155 H           1 MOL       0.0524
     71 H24        21.0483  -13.9873   20.6336 H           1 MOL       0.0524
     72 H25        15.8344  -12.1037   21.0245 H           1 MOL       0.1878
     73 H26        14.2735  -13.3541   19.0788 H           1 MOL       0.0683
     74 H27        14.4606  -11.6403   18.6723 H           1 MOL       0.0683
     75 H28        12.9588  -10.1319   19.8131 H           1 MOL       0.0557
     76 H29        11.4484   -9.5944   21.5725 H           1 MOL       0.0599
     77 H30         9.8632   -9.7334   24.7197 H           1 MOL       0.3180
     78 H31        10.7958   -9.1591   23.5368 H           1 MOL       0.3180
     79 H32        10.4660  -12.8834   24.3294 H           1 MOL       0.3180
     80 H33         9.6911  -11.7377   25.1465 H           1 MOL       0.3180
     81 H34        12.2949  -13.3100   23.4130 H           1 MOL       0.0599
     82 H35        13.7752  -13.8474   21.6361 H           1 MOL       0.0557
@<TRIPOS>BOND
     1     1     3   1
     2     1     7   2
     3     1     8   2
     4    14     1  am
     5    12     2   1
     6     3     9  ar
     7     3    10  ar
     8     5     4   1
     9     6     5   1
    10    11     6  ar
    11    12     6  ar
    12     9    11  ar
    13    10    12  ar
    14    13    15   2
    15    25    13   1
    16    13    30  am
    17    25    14   1
    18    16    17   1
    19    29    16   1
    20    17    18  ar
    21    17    22  ar
    22    18    19  ar
    23    19    20  ar
    24    21    20  ar
    25    20    23   1
    26    22    21  ar
    27    23    24   3
    28    26    25   1
    29    27    26   1
    30    27    28   2
    31    27    29  am
    32    30    31   1
    33    30    36   1
    34    31    32   1
    35    31    34   1
    36    32    33   2
    37    32    37  am
    38    34    35   1
    39    35    36   1
    40    37    38   1
    41    38    39   1
    42    39    40  ar
    43    39    47  ar
    44    40    41  ar
    45    41    42  ar
    46    42    43   1
    47    42    46  ar
    48    43    44  ar
    49    43    45  ar
    50    46    47  ar
    51     4    48   1
    52     4    49   1
    53     4    50   1
    54     9    51   1
    55    10    52   1
    56    11    53   1
    57    14    54   1
    58    16    55   1
    59    16    56   1
    60    18    57   1
    61    19    58   1
    62    21    59   1
    63    22    60   1
    64    25    61   1
    65    26    62   1
    66    26    63   1
    67    29    64   1
    68    31    65   1
    69    34    66   1
    70    34    67   1
    71    35    68   1
    72    35    69   1
    73    36    70   1
    74    36    71   1
    75    37    72   1
    76    38    73   1
    77    38    74   1
    78    40    75   1
    79    41    76   1
    80    44    77   1
    81    44    78   1
    82    45    79   1
    83    45    80   1
    84    46    81   1
    85    47    82   1
@<TRIPOS>SUBSTRUCTURE
     1  MOL      2

