@<TRIPOS>MOLECULE
3utu_ligand_016
    82    85
SMALL
GAST_HUCK
****
This file was generated by PARSER (from files_GN.cpp)

@<TRIPOS>ATOM
      1 S8         20.2350  -16.4952   22.9049 S.o2        1 MOL       0.0657
      2 CL         23.1883  -12.4304   24.8965 Cl          1 MOL      -0.0788
      3 C35        20.3619  -15.0457   23.8595 C.ar        1 MOL       0.0977
      4 C10        20.8120  -11.9138   27.6502 C.3         1 MOL       0.0596
      5 O9         20.6190  -11.6088   26.2542 O.3         1 MOL      -0.3203
      6 C5         20.5546  -12.7213   25.4623 C.ar        1 MOL       0.1052
      7 O1         21.3938  -16.6225   21.8188 O.2         1 MOL      -0.1516
      8 O10        20.4437  -17.7481   23.8645 O.2         1 MOL      -0.1516
      9 C7         19.2202  -14.5347   24.5089 C.ar        1 MOL      -0.0438
     10 C3         21.5938  -14.3744   23.9899 C.ar        1 MOL      -0.0300
     11 C6         19.3160  -13.3745   25.2952 C.ar        1 MOL      -0.0306
     12 C4         21.6934  -13.2115   24.7791 C.ar        1 MOL       0.0696
     13 C13        17.9962  -14.6738   21.1295 C.2         1 MOL       0.2048
     14 N11        18.7257  -16.6834   22.1867 N.am        1 MOL      -0.2244
     15 O14        16.9228  -14.4736   21.6914 O.2         1 MOL      -0.3945
     16 C15        15.7215  -17.3026   16.8881 C.3         1 MOL       0.0687
     17 C31        16.7783  -16.9705   15.8943 C.ar        1 MOL      -0.0116
     18 C32        17.9364  -17.7802   15.7948 C.ar        1 MOL      -0.0467
     19 C33        18.9560  -17.4729   14.8748 C.ar        1 MOL      -0.0334
     20 C44        18.8265  -16.3626   14.0144 C.ar        1 MOL       0.0883
     21 C8         17.6729  -15.5542   14.0973 C.ar        1 MOL      -0.0334
     22 C9         16.6616  -15.8566   15.0318 C.ar        1 MOL      -0.0467
     23 C40        19.7605  -16.0967   13.1462 C.1         1 MOL       0.0934
     24 N63        20.5839  -15.8685   12.3804 N.1         1 MOL      -0.3338
     25 C45        18.3550  -16.0842   20.9397 C.3         1 MOL       0.1430
     26 C12        17.2083  -16.9529   20.3259 C.3         1 MOL       0.0742
     27 C46        16.6590  -16.5589   19.0397 C.2         1 MOL       0.1821
     28 O22        16.5026  -15.3591   18.8004 O.2         1 MOL      -0.3967
     29 N14        16.2449  -17.4992   18.2056 N.am        1 MOL      -0.2739
     30 N15        18.7251  -13.6104   20.7403 N.am        1 MOL      -0.2500
     31 C16        18.2503  -12.2420   20.7738 C.3         1 MOL       0.1338
     32 C17        17.0004  -11.9954   20.0572 C.2         1 MOL       0.2037
     33 O18        16.7708  -12.6365   19.0351 O.2         1 MOL      -0.3944
     34 C34        19.3957  -11.3929   20.1665 C.3         1 MOL      -0.0104
     35 C1         20.6369  -12.2492   20.4116 C.3         1 MOL      -0.0281
     36 C2         20.0903  -13.6825   20.2912 C.3         1 MOL       0.0369
     37 N19        16.1930  -11.0203   20.4466 N.am        1 MOL      -0.2737
     38 C20        14.9315  -10.6658   19.8714 C.3         1 MOL       0.0645
     39 C21        13.8894  -10.6887   20.9224 C.ar        1 MOL      -0.0210
     40 C26        13.9492   -9.7587   21.9831 C.ar        1 MOL      -0.0584
     41 C25        12.9953   -9.7787   23.0128 C.ar        1 MOL      -0.0633
     42 C24        11.9433  -10.7309   23.0182 C.ar        1 MOL       0.0188
     43 C27        10.9863  -10.7375   24.0360 C.cat       1 MOL       0.2318
     44 N29        10.5245   -9.6522   24.5318 N.pl3       1 MOL      -0.2729
     45 N28        10.5090  -11.8222   24.5237 N.pl3       1 MOL      -0.2729
     46 C23        11.8875  -11.6572   21.9438 C.ar        1 MOL      -0.0633
     47 C22        12.8390  -11.6306   20.9086 C.ar        1 MOL      -0.0584
     48 H1         20.8621  -10.9739   28.2035 H           1 MOL       0.0578
     49 H2         21.7481  -12.4557   27.8172 H           1 MOL       0.0578
     50 H3         19.9774  -12.4976   28.0516 H           1 MOL       0.0578
     51 H4         18.3155  -15.0059   24.4157 H           1 MOL       0.0610
     52 H5         22.4282  -14.7302   23.5128 H           1 MOL       0.0614
     53 H6         18.4778  -13.0199   25.7562 H           1 MOL       0.0542
     54 H7         18.0104  -17.0272   22.7490 H           1 MOL       0.1706
     55 H8         15.2486  -18.2358   16.5768 H           1 MOL       0.0704
     56 H9         14.9410  -16.5376   16.9250 H           1 MOL       0.0704
     57 H10        18.0471  -18.5960   16.4007 H           1 MOL       0.0584
     58 H11        19.7895  -18.0710   14.8407 H           1 MOL       0.0701
     59 H12        17.5533  -14.7434   13.4801 H           1 MOL       0.0701
     60 H13        15.8322  -15.2565   15.0715 H           1 MOL       0.0584
     61 H14        19.1967  -16.1793   20.2574 H           1 MOL       0.0779
     62 H15        16.3792  -17.0270   21.0368 H           1 MOL       0.0547
     63 H16        17.6055  -17.9677   20.2145 H           1 MOL       0.0547
     64 H17        16.3391  -18.4251   18.5023 H           1 MOL       0.1881
     65 H18        18.1268  -11.9677   21.8315 H           1 MOL       0.0802
     66 H19        19.4710  -10.4127   20.6401 H           1 MOL       0.0313
     67 H20        19.2696  -11.2608   19.0856 H           1 MOL       0.0313
     68 H21        21.0180  -12.0696   21.4217 H           1 MOL       0.0287
     69 H22        21.4283  -12.0506   19.6822 H           1 MOL       0.0287
     70 H23        20.1336  -14.0249   19.2500 H           1 MOL       0.0524
     71 H24        20.7002  -14.3371   20.9195 H           1 MOL       0.0524
     72 H25        16.4852  -10.4838   21.2020 H           1 MOL       0.1878
     73 H26        14.6568  -11.3170   19.0373 H           1 MOL       0.0683
     74 H27        15.0096   -9.6546   19.4733 H           1 MOL       0.0683
     75 H28        14.6935   -9.0608   22.0158 H           1 MOL       0.0557
     76 H29        13.0916   -9.0995   23.7735 H           1 MOL       0.0599
     77 H30         9.8686   -9.6810   25.1950 H           1 MOL       0.3180
     78 H31        10.8172   -8.8231   24.2123 H           1 MOL       0.3180
     79 H32        10.8032  -12.6583   24.2237 H           1 MOL       0.3180
     80 H33         9.8566  -11.7784   25.1897 H           1 MOL       0.3180
     81 H34        11.1343  -12.3503   21.8949 H           1 MOL       0.0599
     82 H35        12.7607  -12.3123   20.1494 H           1 MOL       0.0557
@<TRIPOS>BOND
     1     1     3   1
     2     1     7   2
     3     1     8   2
     4    14     1  am
     5    12     2   1
     6     3     9  ar
     7     3    10  ar
     8     5     4   1
     9     6     5   1
    10    11     6  ar
    11    12     6  ar
    12     9    11  ar
    13    10    12  ar
    14    13    15   2
    15    25    13   1
    16    13    30  am
    17    25    14   1
    18    16    17   1
    19    29    16   1
    20    17    18  ar
    21    17    22  ar
    22    18    19  ar
    23    19    20  ar
    24    21    20  ar
    25    20    23   1
    26    22    21  ar
    27    23    24   3
    28    26    25   1
    29    27    26   1
    30    27    28   2
    31    27    29  am
    32    30    31   1
    33    30    36   1
    34    31    32   1
    35    31    34   1
    36    32    33   2
    37    32    37  am
    38    34    35   1
    39    35    36   1
    40    37    38   1
    41    38    39   1
    42    39    40  ar
    43    39    47  ar
    44    40    41  ar
    45    41    42  ar
    46    42    43   1
    47    42    46  ar
    48    43    44  ar
    49    43    45  ar
    50    46    47  ar
    51     4    48   1
    52     4    49   1
    53     4    50   1
    54     9    51   1
    55    10    52   1
    56    11    53   1
    57    14    54   1
    58    16    55   1
    59    16    56   1
    60    18    57   1
    61    19    58   1
    62    21    59   1
    63    22    60   1
    64    25    61   1
    65    26    62   1
    66    26    63   1
    67    29    64   1
    68    31    65   1
    69    34    66   1
    70    34    67   1
    71    35    68   1
    72    35    69   1
    73    36    70   1
    74    36    71   1
    75    37    72   1
    76    38    73   1
    77    38    74   1
    78    40    75   1
    79    41    76   1
    80    44    77   1
    81    44    78   1
    82    45    79   1
    83    45    80   1
    84    46    81   1
    85    47    82   1
@<TRIPOS>SUBSTRUCTURE
     1  MOL      2

