@<TRIPOS>MOLECULE
3utu_ligand_004
    82    85
SMALL
GAST_HUCK
****
This file was generated by PARSER (from files_GN.cpp)

@<TRIPOS>ATOM
      1 S8         20.2157  -13.2969   25.9679 S.o2        1 MOL       0.0657
      2 CL         24.0526  -17.0804   25.5148 Cl          1 MOL      -0.0788
      3 C35        21.8521  -13.7466   25.5787 C.ar        1 MOL       0.0977
      4 C10        25.8316  -15.1529   23.0131 C.3         1 MOL       0.0596
      5 O9         25.7359  -14.8301   24.4129 O.3         1 MOL      -0.3203
      6 C5         24.4668  -14.4989   24.8070 C.ar        1 MOL       0.1052
      7 O1         20.1239  -13.2182   27.5531 O.2         1 MOL      -0.1516
      8 O10        19.8516  -11.8322   25.4681 O.2         1 MOL      -0.1516
      9 C7         22.7618  -12.7764   25.1070 C.ar        1 MOL      -0.0438
     10 C3         22.2715  -15.0872   25.7045 C.ar        1 MOL      -0.0300
     11 C6         24.0624  -13.1510   24.7309 C.ar        1 MOL      -0.0306
     12 C4         23.5762  -15.4652   25.3292 C.ar        1 MOL       0.0696
     13 C13        18.3883  -13.5786   23.3257 C.2         1 MOL       0.2048
     14 N11        19.0140  -14.3841   25.4943 N.am        1 MOL      -0.2244
     15 O14        17.3375  -13.0292   23.6415 O.2         1 MOL      -0.3945
     16 C15        15.1489  -16.1770   21.2955 C.3         1 MOL       0.0687
     17 C31        14.3416  -17.4209   21.3294 C.ar        1 MOL      -0.0116
     18 C32        14.9650  -18.6721   21.1170 C.ar        1 MOL      -0.0467
     19 C33        14.2175  -19.8640   21.1438 C.ar        1 MOL      -0.0334
     20 C44        12.8295  -19.8254   21.3948 C.ar        1 MOL       0.0883
     21 C8         12.2006  -18.5822   21.6223 C.ar        1 MOL      -0.0334
     22 C9         12.9511  -17.3914   21.5867 C.ar        1 MOL      -0.0467
     23 C40        12.1383  -20.9305   21.4151 C.1         1 MOL       0.0934
     24 N63        11.5345  -21.9063   21.4298 N.1         1 MOL      -0.3338
     25 C45        18.7480  -14.7543   24.1350 C.3         1 MOL       0.1430
     26 C12        17.6398  -15.8575   24.1163 C.3         1 MOL       0.0742
     27 C46        17.1151  -16.1742   22.7942 C.2         1 MOL       0.1821
     28 O22        17.8912  -16.5671   21.9321 O.2         1 MOL      -0.3967
     29 N14        15.8228  -16.0040   22.5426 N.am        1 MOL      -0.2739
     30 N15        19.0832  -13.1067   22.2722 N.am        1 MOL      -0.2500
     31 C16        18.6366  -12.0116   21.4387 C.3         1 MOL       0.1338
     32 C17        17.3302  -12.2201   20.8148 C.2         1 MOL       0.2037
     33 O18        17.1207  -13.2805   20.2363 O.2         1 MOL      -0.3944
     34 C34        19.7327  -11.8189   20.3569 C.3         1 MOL      -0.0104
     35 C1         20.9617  -12.5285   20.9301 C.3         1 MOL      -0.0281
     36 C2         20.3726  -13.5921   21.8686 C.3         1 MOL       0.0369
     37 N19        16.4142  -11.2606   20.8580 N.am        1 MOL      -0.2737
     38 C20        15.1199  -11.2738   20.2468 C.3         1 MOL       0.0645
     39 C21        14.0688  -11.1639   21.2876 C.ar        1 MOL      -0.0210
     40 C26        13.1722  -12.2252   21.5336 C.ar        1 MOL      -0.0584
     41 C25        12.1927  -12.1211   22.5362 C.ar        1 MOL      -0.0633
     42 C24        12.0597  -10.9469   23.3229 C.ar        1 MOL       0.0188
     43 C27        11.0717  -10.8430   24.3145 C.cat       1 MOL       0.2318
     44 N29        10.5120  -11.8658   24.8391 N.pl3       1 MOL      -0.2729
     45 N28        10.6562   -9.7166   24.7552 N.pl3       1 MOL      -0.2729
     46 C23        12.9565   -9.8801   23.0524 C.ar        1 MOL      -0.0633
     47 C22        13.9455   -9.9879   22.0586 C.ar        1 MOL      -0.0584
     48 H1         26.8810  -15.3304   22.7766 H           1 MOL       0.0578
     49 H2         25.4746  -14.3348   22.3821 H           1 MOL       0.0578
     50 H3         25.2698  -16.0597   22.7769 H           1 MOL       0.0578
     51 H4         22.4847  -11.7957   25.0210 H           1 MOL       0.0610
     52 H5         21.6252  -15.7924   26.0678 H           1 MOL       0.0614
     53 H6         24.7127  -12.4411   24.3843 H           1 MOL       0.0542
     54 H7         18.4922  -14.8056   26.1969 H           1 MOL       0.1706
     55 H8         14.5114  -15.3029   21.1514 H           1 MOL       0.0704
     56 H9         15.8368  -16.2033   20.4461 H           1 MOL       0.0704
     57 H10        15.9697  -18.7231   20.9305 H           1 MOL       0.0584
     58 H11        14.6979  -20.7540   20.9780 H           1 MOL       0.0701
     59 H12        11.1950  -18.5291   21.8129 H           1 MOL       0.0701
     60 H13        12.4761  -16.5024   21.7631 H           1 MOL       0.0584
     61 H14        19.6518  -15.2357   23.7598 H           1 MOL       0.0779
     62 H15        16.8224  -15.5429   24.7745 H           1 MOL       0.0547
     63 H16        18.0471  -16.7782   24.5440 H           1 MOL       0.0547
     64 H17        15.2713  -15.7145   23.2866 H           1 MOL       0.1881
     65 H18        18.6156  -11.1116   22.0652 H           1 MOL       0.0802
     66 H19        19.9355  -10.7592   20.1750 H           1 MOL       0.0313
     67 H20        19.4697  -12.2904   19.4035 H           1 MOL       0.0313
     68 H21        21.5698  -11.8202   21.4990 H           1 MOL       0.0287
     69 H22        21.5767  -12.9755   20.1453 H           1 MOL       0.0287
     70 H23        20.2615  -14.5482   21.3476 H           1 MOL       0.0524
     71 H24        21.0529  -13.7175   22.7143 H           1 MOL       0.0524
     72 H25        16.6488  -10.4535   21.3448 H           1 MOL       0.1878
     73 H26        14.9695  -12.1655   19.6314 H           1 MOL       0.0683
     74 H27        15.0525  -10.4153   19.5769 H           1 MOL       0.0683
     75 H28        13.2247  -13.0850   20.9829 H           1 MOL       0.0557
     76 H29        11.5568  -12.9129   22.6615 H           1 MOL       0.0599
     77 H30         9.8419  -11.7508   25.4793 H           1 MOL       0.3180
     78 H31        10.7540  -12.7335   24.5861 H           1 MOL       0.3180
     79 H32        10.9969   -8.9143   24.4178 H           1 MOL       0.3180
     80 H33         9.9794   -9.6879   25.3986 H           1 MOL       0.3180
     81 H34        12.9179   -9.0120   23.5923 H           1 MOL       0.0599
     82 H35        14.5776   -9.1989   21.9001 H           1 MOL       0.0557
@<TRIPOS>BOND
     1     1     3   1
     2     1     7   2
     3     1     8   2
     4    14     1  am
     5    12     2   1
     6     3     9  ar
     7     3    10  ar
     8     5     4   1
     9     6     5   1
    10    11     6  ar
    11    12     6  ar
    12     9    11  ar
    13    10    12  ar
    14    13    15   2
    15    25    13   1
    16    13    30  am
    17    25    14   1
    18    16    17   1
    19    29    16   1
    20    17    18  ar
    21    17    22  ar
    22    18    19  ar
    23    19    20  ar
    24    21    20  ar
    25    20    23   1
    26    22    21  ar
    27    23    24   3
    28    26    25   1
    29    27    26   1
    30    27    28   2
    31    27    29  am
    32    30    31   1
    33    30    36   1
    34    31    32   1
    35    31    34   1
    36    32    33   2
    37    32    37  am
    38    34    35   1
    39    35    36   1
    40    37    38   1
    41    38    39   1
    42    39    40  ar
    43    39    47  ar
    44    40    41  ar
    45    41    42  ar
    46    42    43   1
    47    42    46  ar
    48    43    44  ar
    49    43    45  ar
    50    46    47  ar
    51     4    48   1
    52     4    49   1
    53     4    50   1
    54     9    51   1
    55    10    52   1
    56    11    53   1
    57    14    54   1
    58    16    55   1
    59    16    56   1
    60    18    57   1
    61    19    58   1
    62    21    59   1
    63    22    60   1
    64    25    61   1
    65    26    62   1
    66    26    63   1
    67    29    64   1
    68    31    65   1
    69    34    66   1
    70    34    67   1
    71    35    68   1
    72    35    69   1
    73    36    70   1
    74    36    71   1
    75    37    72   1
    76    38    73   1
    77    38    74   1
    78    40    75   1
    79    41    76   1
    80    44    77   1
    81    44    78   1
    82    45    79   1
    83    45    80   1
    84    46    81   1
    85    47    82   1
@<TRIPOS>SUBSTRUCTURE
     1  MOL      2

