@<TRIPOS>MOLECULE
3utu_ligand_089
    82    85
SMALL
GAST_HUCK
****
This file was generated by PARSER (from files_GN.cpp)

@<TRIPOS>ATOM
      1 S8         20.8517  -15.4481   24.6169 S.o2        1 MOL       0.0657
      2 CL         24.1354  -18.2006   21.3041 Cl          1 MOL      -0.0788
      3 C35        22.4481  -15.9893   24.1703 C.ar        1 MOL       0.0977
      4 C10        26.9572  -15.9321   22.2013 C.3         1 MOL       0.0596
      5 O9         26.3413  -17.0004   22.9454 O.3         1 MOL      -0.3203
      6 C5         25.0687  -16.7003   23.3575 C.ar        1 MOL       0.1052
      7 O1         20.4597  -16.0307   26.0460 O.2         1 MOL      -0.1516
      8 O10        20.9766  -13.8863   24.8891 O.2         1 MOL      -0.1516
      9 C7         23.5689  -15.5323   24.8944 C.ar        1 MOL      -0.0438
     10 C3         22.6433  -16.8492   23.0722 C.ar        1 MOL      -0.0300
     11 C6         24.8690  -15.8945   24.4986 C.ar        1 MOL      -0.0306
     12 C4         23.9457  -17.2029   22.6586 C.ar        1 MOL       0.0696
     13 C13        19.7935  -14.2093   21.6457 C.2         1 MOL       0.2048
     14 N11        19.5803  -15.7275   23.5337 N.am        1 MOL      -0.2244
     15 O14        20.8900  -14.7557   21.5576 O.2         1 MOL      -0.3945
     16 C15        16.4231  -15.8295   26.1491 C.3         1 MOL       0.0687
     17 C31        17.4374  -16.7837   26.6686 C.ar        1 MOL      -0.0116
     18 C32        17.8891  -17.8420   25.8467 C.ar        1 MOL      -0.0467
     19 C33        18.8357  -18.7711   26.3136 C.ar        1 MOL      -0.0334
     20 C44        19.3398  -18.6684   27.6272 C.ar        1 MOL       0.0883
     21 C8         18.8877  -17.6262   28.4630 C.ar        1 MOL      -0.0334
     22 C9         17.9470  -16.6894   27.9880 C.ar        1 MOL      -0.0467
     23 C40        20.2170  -19.5266   28.0602 C.1         1 MOL       0.0934
     24 N63        20.9943  -20.2819   28.4410 N.1         1 MOL      -0.3338
     25 C45        18.9155  -14.7277   22.7229 C.3         1 MOL       0.1430
     26 C12        18.1879  -13.6633   23.6233 C.3         1 MOL       0.0742
     27 C46        17.7363  -14.1562   24.9176 C.2         1 MOL       0.1821
     28 O22        18.2146  -13.6761   25.9416 O.2         1 MOL      -0.3967
     29 N14        16.8641  -15.1550   24.9704 N.am        1 MOL      -0.2739
     30 N15        19.5140  -13.3001   20.6876 N.am        1 MOL      -0.2500
     31 C16        18.3319  -12.4702   20.5804 C.3         1 MOL       0.1338
     32 C17        17.1140  -13.1519   20.1410 C.2         1 MOL       0.2037
     33 O18        17.1531  -14.3342   19.8127 O.2         1 MOL      -0.3944
     34 C34        18.7447  -11.3410   19.5956 C.3         1 MOL      -0.0104
     35 C1         19.8084  -11.9868   18.7046 C.3         1 MOL      -0.0281
     36 C2         20.4723  -12.9945   19.6491 C.3         1 MOL       0.0369
     37 N19        15.9920  -12.4464   20.0528 N.am        1 MOL      -0.2737
     38 C20        14.7037  -12.8863   19.6081 C.3         1 MOL       0.0645
     39 C21        13.6890  -12.4673   20.6091 C.ar        1 MOL      -0.0210
     40 C26        12.8732  -11.3333   20.3940 C.ar        1 MOL      -0.0584
     41 C25        11.9658  -10.9037   21.3799 C.ar        1 MOL      -0.0633
     42 C24        11.8199  -11.6030   22.6044 C.ar        1 MOL       0.0188
     43 C27        10.9131  -11.1799   23.5860 C.cat       1 MOL       0.2318
     44 N29        10.5527   -9.9596   23.7209 N.pl3       1 MOL      -0.2729
     45 N28        10.3781  -11.9942   24.4141 N.pl3       1 MOL      -0.2729
     46 C23        12.6290  -12.7534   22.7959 C.ar        1 MOL      -0.0633
     47 C22        13.5575  -13.1687   21.8260 C.ar        1 MOL      -0.0584
     48 H1         27.9132  -16.2895   21.8207 H           1 MOL       0.0578
     49 H2         27.1479  -15.0695   22.8422 H           1 MOL       0.0578
     50 H3         26.3460  -15.6213   21.3497 H           1 MOL       0.0578
     51 H4         23.4534  -14.9175   25.7019 H           1 MOL       0.0610
     52 H5         21.8397  -17.2044   22.5477 H           1 MOL       0.0614
     53 H6         25.6712  -15.5432   25.0245 H           1 MOL       0.0542
     54 H7         19.3225  -16.6542   23.3948 H           1 MOL       0.1706
     55 H8         16.1213  -15.0984   26.9019 H           1 MOL       0.0704
     56 H9         15.5347  -16.4037   25.8890 H           1 MOL       0.0704
     57 H10        17.5179  -17.9477   24.8964 H           1 MOL       0.0584
     58 H11        19.1344  -19.5286   25.6900 H           1 MOL       0.0701
     59 H12        19.2297  -17.5391   29.4271 H           1 MOL       0.0701
     60 H13        17.6334  -15.9432   28.6128 H           1 MOL       0.0584
     61 H14        18.1228  -15.2732   22.2054 H           1 MOL       0.0779
     62 H15        17.2937  -13.3130   23.1117 H           1 MOL       0.0547
     63 H16        18.8455  -12.7988   23.7598 H           1 MOL       0.0547
     64 H17        16.5013  -15.4747   24.1244 H           1 MOL       0.1881
     65 H18        18.1325  -11.9913   21.5431 H           1 MOL       0.0802
     66 H19        19.1951  -10.5076   20.1503 H           1 MOL       0.0313
     67 H20        17.9198  -10.9473   18.9946 H           1 MOL       0.0313
     68 H21        20.5223  -11.2534   18.3236 H           1 MOL       0.0287
     69 H22        19.3306  -12.5014   17.8639 H           1 MOL       0.0287
     70 H23        20.7434  -13.8936   19.0863 H           1 MOL       0.0524
     71 H24        21.3750  -12.5603   20.0877 H           1 MOL       0.0524
     72 H25        16.0568  -11.5019   20.2722 H           1 MOL       0.1878
     73 H26        14.6563  -13.9714   19.4642 H           1 MOL       0.0683
     74 H27        14.5106  -12.4238   18.6391 H           1 MOL       0.0683
     75 H28        12.9480  -10.7996   19.5238 H           1 MOL       0.0557
     76 H29        11.3974  -10.0764   21.1803 H           1 MOL       0.0599
     77 H30         9.9438   -9.7220   24.3954 H           1 MOL       0.3180
     78 H31        10.9011   -9.2931   23.1637 H           1 MOL       0.3180
     79 H32        10.5720  -12.9071   24.3732 H           1 MOL       0.3180
     80 H33         9.7593  -11.6909   25.0479 H           1 MOL       0.3180
     81 H34        12.5696  -13.2947   23.6589 H           1 MOL       0.0599
     82 H35        14.1399  -13.9899   22.0138 H           1 MOL       0.0557
@<TRIPOS>BOND
     1     1     3   1
     2     1     7   2
     3     1     8   2
     4    14     1  am
     5    12     2   1
     6     3     9  ar
     7     3    10  ar
     8     5     4   1
     9     6     5   1
    10    11     6  ar
    11    12     6  ar
    12     9    11  ar
    13    10    12  ar
    14    13    15   2
    15    25    13   1
    16    13    30  am
    17    25    14   1
    18    16    17   1
    19    29    16   1
    20    17    18  ar
    21    17    22  ar
    22    18    19  ar
    23    19    20  ar
    24    21    20  ar
    25    20    23   1
    26    22    21  ar
    27    23    24   3
    28    26    25   1
    29    27    26   1
    30    27    28   2
    31    27    29  am
    32    30    31   1
    33    30    36   1
    34    31    32   1
    35    31    34   1
    36    32    33   2
    37    32    37  am
    38    34    35   1
    39    35    36   1
    40    37    38   1
    41    38    39   1
    42    39    40  ar
    43    39    47  ar
    44    40    41  ar
    45    41    42  ar
    46    42    43   1
    47    42    46  ar
    48    43    44  ar
    49    43    45  ar
    50    46    47  ar
    51     4    48   1
    52     4    49   1
    53     4    50   1
    54     9    51   1
    55    10    52   1
    56    11    53   1
    57    14    54   1
    58    16    55   1
    59    16    56   1
    60    18    57   1
    61    19    58   1
    62    21    59   1
    63    22    60   1
    64    25    61   1
    65    26    62   1
    66    26    63   1
    67    29    64   1
    68    31    65   1
    69    34    66   1
    70    34    67   1
    71    35    68   1
    72    35    69   1
    73    36    70   1
    74    36    71   1
    75    37    72   1
    76    38    73   1
    77    38    74   1
    78    40    75   1
    79    41    76   1
    80    44    77   1
    81    44    78   1
    82    45    79   1
    83    45    80   1
    84    46    81   1
    85    47    82   1
@<TRIPOS>SUBSTRUCTURE
     1  MOL      2

