@<TRIPOS>MOLECULE
3utu_ligand_090
    82    85
SMALL
GAST_HUCK
****
This file was generated by PARSER (from files_GN.cpp)

@<TRIPOS>ATOM
      1 S8         18.3518  -14.7716   25.2433 S.o2        1 MOL       0.0657
      2 CL         23.6036  -15.8012   25.9056 Cl          1 MOL      -0.0788
      3 C35        19.9929  -14.1845   25.3508 C.ar        1 MOL       0.0977
      4 C10        24.6996  -12.9479   24.1954 C.3         1 MOL       0.0596
      5 O9         23.9725  -12.8287   25.4306 O.3         1 MOL      -0.3203
      6 C5         22.6884  -13.3028   25.3861 C.ar        1 MOL       0.1052
      7 O1         17.9942  -15.2191   26.7267 O.2         1 MOL      -0.1516
      8 O10        17.2949  -13.6542   24.8386 O.2         1 MOL      -0.1516
      9 C7         20.2978  -12.8156   25.1879 C.ar        1 MOL      -0.0438
     10 C3         21.0420  -15.0987   25.5851 C.ar        1 MOL      -0.0300
     11 C6         21.6363  -12.3808   25.2141 C.ar        1 MOL      -0.0306
     12 C4         22.3839  -14.6660   25.6055 C.ar        1 MOL       0.0696
     13 C13        18.4309  -15.5246   21.9995 C.2         1 MOL       0.2048
     14 N11        18.1802  -16.1579   24.2942 N.am        1 MOL      -0.2244
     15 O14        19.2342  -14.6661   21.6413 O.2         1 MOL      -0.3945
     16 C15        21.6100  -18.2568   20.1434 C.3         1 MOL       0.0687
     17 C31        22.8761  -18.9893   20.4102 C.ar        1 MOL      -0.0116
     18 C32        23.9725  -18.8235   19.5310 C.ar        1 MOL      -0.0467
     19 C33        25.1862  -19.5027   19.7489 C.ar        1 MOL      -0.0334
     20 C44        25.3259  -20.3694   20.8522 C.ar        1 MOL       0.0883
     21 C8         24.2326  -20.5654   21.7222 C.ar        1 MOL      -0.0334
     22 C9         23.0192  -19.8857   21.4979 C.ar        1 MOL      -0.0467
     23 C40        26.4529  -20.9875   21.0615 C.1         1 MOL       0.0934
     24 N63        27.4469  -21.5309   21.2450 N.1         1 MOL      -0.3338
     25 C45        18.9081  -16.4048   23.0868 C.3         1 MOL       0.1430
     26 C12        18.9384  -17.9384   22.7822 C.3         1 MOL       0.0742
     27 C46        19.5494  -18.2855   21.5102 C.2         1 MOL       0.1821
     28 O22        18.8696  -18.8175   20.6394 O.2         1 MOL      -0.3967
     29 N14        20.8352  -18.0056   21.3184 N.am        1 MOL      -0.2739
     30 N15        17.2137  -15.5277   21.4232 N.am        1 MOL      -0.2500
     31 C16        16.8028  -14.5456   20.4324 C.3         1 MOL       0.1338
     32 C17        16.5419  -13.2098   20.9878 C.2         1 MOL       0.2037
     33 O18        16.6936  -12.9984   22.1840 O.2         1 MOL      -0.3944
     34 C34        15.5452  -15.1782   19.7812 C.3         1 MOL      -0.0104
     35 C1         14.9465  -16.0295   20.9037 C.3         1 MOL      -0.0281
     36 C2         16.1883  -16.5018   21.6770 C.3         1 MOL       0.0369
     37 N19        16.0632  -12.2553   20.2014 N.am        1 MOL      -0.2737
     38 C20        15.5879  -10.9718   20.6300 C.3         1 MOL       0.0645
     39 C21        14.4043  -10.9463   21.5415 C.ar        1 MOL      -0.0210
     40 C26        13.9713   -9.7141   22.0784 C.ar        1 MOL      -0.0584
     41 C25        12.9043   -9.6554   22.9972 C.ar        1 MOL      -0.0633
     42 C24        12.2252  -10.8254   23.4348 C.ar        1 MOL       0.0188
     43 C27        11.1673  -10.7771   24.3677 C.cat       1 MOL       0.2318
     44 N29        10.6971   -9.6835   24.8362 N.pl3       1 MOL      -0.2729
     45 N28        10.5840  -11.8217   24.8156 N.pl3       1 MOL      -0.2729
     46 C23        12.6503  -12.0543   22.8617 C.ar        1 MOL      -0.0633
     47 C22        13.6922  -12.1081   21.9185 C.ar        1 MOL      -0.0584
     48 H1         25.6791  -12.4857   24.3376 H           1 MOL       0.0578
     49 H2         24.1926  -12.4318   23.3762 H           1 MOL       0.0578
     50 H3         24.8563  -13.9930   23.9233 H           1 MOL       0.0578
     51 H4         19.5536  -12.1279   25.0502 H           1 MOL       0.0610
     52 H5         20.8291  -16.0902   25.7266 H           1 MOL       0.0614
     53 H6         21.8465  -11.3858   25.1079 H           1 MOL       0.0542
     54 H7         17.4978  -16.7974   24.5544 H           1 MOL       0.1706
     55 H8         21.0498  -18.8139   19.3877 H           1 MOL       0.0704
     56 H9         21.8450  -17.2740   19.7266 H           1 MOL       0.0704
     57 H10        23.8952  -18.2010   18.7219 H           1 MOL       0.0584
     58 H11        25.9601  -19.3560   19.0925 H           1 MOL       0.0701
     59 H12        24.3022  -21.2026   22.5215 H           1 MOL       0.0701
     60 H13        22.2392  -20.0544   22.1374 H           1 MOL       0.0584
     61 H14        19.9540  -16.1537   23.2987 H           1 MOL       0.0779
     62 H15        17.9257  -18.3477   22.8411 H           1 MOL       0.0547
     63 H16        19.5090  -18.4376   23.5740 H           1 MOL       0.0547
     64 H17        21.2985  -17.5730   22.0561 H           1 MOL       0.1881
     65 H18        17.5692  -14.4519   19.6549 H           1 MOL       0.0802
     66 H19        15.8405  -15.8282   18.9515 H           1 MOL       0.0313
     67 H20        14.8233  -14.4488   19.3993 H           1 MOL       0.0313
     68 H21        14.3563  -16.8617   20.5065 H           1 MOL       0.0287
     69 H22        14.3124  -15.4147   21.5487 H           1 MOL       0.0287
     70 H23        15.9525  -16.5852   22.7401 H           1 MOL       0.0524
     71 H24        16.4947  -17.4767   21.2872 H           1 MOL       0.0524
     72 H25        15.9901  -12.4554   19.2511 H           1 MOL       0.1878
     73 H26        15.3376  -10.3992   19.7349 H           1 MOL       0.0683
     74 H27        16.4207  -10.4662   21.1228 H           1 MOL       0.0683
     75 H28        14.4440   -8.8452   21.8128 H           1 MOL       0.0557
     76 H29        12.6422   -8.7337   23.3525 H           1 MOL       0.0599
     77 H30         9.9814   -9.7091   25.4367 H           1 MOL       0.3180
     78 H31        11.0423   -8.8563   24.5781 H           1 MOL       0.3180
     79 H32        10.8395  -12.6801   24.5449 H           1 MOL       0.3180
     80 H33         9.8753  -11.7322   25.4190 H           1 MOL       0.3180
     81 H34        12.2079  -12.9406   23.1137 H           1 MOL       0.0599
     82 H35        13.9229  -13.0127   21.5140 H           1 MOL       0.0557
@<TRIPOS>BOND
     1     1     3   1
     2     1     7   2
     3     1     8   2
     4    14     1  am
     5    12     2   1
     6     3     9  ar
     7     3    10  ar
     8     5     4   1
     9     6     5   1
    10    11     6  ar
    11    12     6  ar
    12     9    11  ar
    13    10    12  ar
    14    13    15   2
    15    25    13   1
    16    13    30  am
    17    25    14   1
    18    16    17   1
    19    29    16   1
    20    17    18  ar
    21    17    22  ar
    22    18    19  ar
    23    19    20  ar
    24    21    20  ar
    25    20    23   1
    26    22    21  ar
    27    23    24   3
    28    26    25   1
    29    27    26   1
    30    27    28   2
    31    27    29  am
    32    30    31   1
    33    30    36   1
    34    31    32   1
    35    31    34   1
    36    32    33   2
    37    32    37  am
    38    34    35   1
    39    35    36   1
    40    37    38   1
    41    38    39   1
    42    39    40  ar
    43    39    47  ar
    44    40    41  ar
    45    41    42  ar
    46    42    43   1
    47    42    46  ar
    48    43    44  ar
    49    43    45  ar
    50    46    47  ar
    51     4    48   1
    52     4    49   1
    53     4    50   1
    54     9    51   1
    55    10    52   1
    56    11    53   1
    57    14    54   1
    58    16    55   1
    59    16    56   1
    60    18    57   1
    61    19    58   1
    62    21    59   1
    63    22    60   1
    64    25    61   1
    65    26    62   1
    66    26    63   1
    67    29    64   1
    68    31    65   1
    69    34    66   1
    70    34    67   1
    71    35    68   1
    72    35    69   1
    73    36    70   1
    74    36    71   1
    75    37    72   1
    76    38    73   1
    77    38    74   1
    78    40    75   1
    79    41    76   1
    80    44    77   1
    81    44    78   1
    82    45    79   1
    83    45    80   1
    84    46    81   1
    85    47    82   1
@<TRIPOS>SUBSTRUCTURE
     1  MOL      2

