@<TRIPOS>MOLECULE
3utu_ligand_042
    82    85
SMALL
GAST_HUCK
****
This file was generated by PARSER (from files_GN.cpp)

@<TRIPOS>ATOM
      1 S8         15.6389  -16.5007   18.1297 S.o2        1 MOL       0.0657
      2 CL         10.9830  -19.1680   18.6843 Cl          1 MOL      -0.0788
      3 C35        14.0912  -16.9779   17.4643 C.ar        1 MOL       0.0977
      4 C10        10.5458  -19.5732   15.1694 C.3         1 MOL       0.0596
      5 O9         10.4461  -18.3006   15.8404 O.3         1 MOL      -0.3203
      6 C5         11.6299  -17.8757   16.3789 C.ar        1 MOL       0.1052
      7 O1         16.5240  -17.8218   18.0967 O.2         1 MOL      -0.1516
      8 O10        16.3673  -15.4020   17.2355 O.2         1 MOL      -0.1516
      9 C7         13.7121  -16.6135   16.1543 C.ar        1 MOL      -0.0438
     10 C3         13.2183  -17.7758   18.2310 C.ar        1 MOL      -0.0300
     11 C6         12.4882  -17.0533   15.6195 C.ar        1 MOL      -0.0306
     12 C4         11.9919  -18.2186   17.7022 C.ar        1 MOL       0.0696
     13 C13        17.7338  -16.0975   20.6767 C.2         1 MOL       0.2048
     14 N11        15.5008  -15.9337   19.7104 N.am        1 MOL      -0.2244
     15 O14        18.3272  -16.9888   20.0740 O.2         1 MOL      -0.3945
     16 C15        16.1562  -18.0972   25.1151 C.3         1 MOL       0.0687
     17 C31        16.9882  -17.0159   25.7033 C.ar        1 MOL      -0.0116
     18 C32        17.7282  -17.2307   26.8908 C.ar        1 MOL      -0.0467
     19 C33        18.4990  -16.1993   27.4570 C.ar        1 MOL      -0.0334
     20 C44        18.5619  -14.9303   26.8409 C.ar        1 MOL       0.0883
     21 C8         17.8115  -14.6989   25.6657 C.ar        1 MOL      -0.0334
     22 C9         17.0241  -15.7273   25.1178 C.ar        1 MOL      -0.0467
     23 C40        19.2996  -13.9868   27.3467 C.1         1 MOL       0.0934
     24 N63        19.9454  -13.1511   27.7946 N.1         1 MOL      -0.3338
     25 C45        16.2843  -16.3225   20.8544 C.3         1 MOL       0.1430
     26 C12        15.9061  -17.7679   21.3678 C.3         1 MOL       0.0742
     27 C46        15.4939  -17.8159   22.7618 C.2         1 MOL       0.1821
     28 O22        14.3812  -17.3863   23.0412 O.2         1 MOL      -0.3967
     29 N14        16.3568  -18.1794   23.7007 N.am        1 MOL      -0.2739
     30 N15        18.4618  -15.0367   21.0828 N.am        1 MOL      -0.2500
     31 C16        17.9614  -13.8271   21.7064 C.3         1 MOL       0.1338
     32 C17        17.2101  -12.9466   20.8101 C.2         1 MOL       0.2037
     33 O18        17.0582  -13.2375   19.6303 O.2         1 MOL      -0.3944
     34 C34        19.2256  -13.1480   22.2904 C.3         1 MOL      -0.0104
     35 C1         20.3492  -13.5943   21.3552 C.3         1 MOL      -0.0281
     36 C2         19.8983  -15.0003   20.9401 C.3         1 MOL       0.0369
     37 N19        16.6798  -11.8364   21.3099 N.am        1 MOL      -0.2737
     38 C20        15.7396  -10.9578   20.6787 C.3         1 MOL       0.0645
     39 C21        14.5339  -10.8631   21.5430 C.ar        1 MOL      -0.0210
     40 C26        13.8474  -12.0336   21.9286 C.ar        1 MOL      -0.0584
     41 C25        12.7406  -11.9687   22.7961 C.ar        1 MOL      -0.0633
     42 C24        12.2598  -10.7292   23.2964 C.ar        1 MOL       0.0188
     43 C27        11.1541  -10.6691   24.1731 C.cat       1 MOL       0.2318
     44 N29        10.5791  -11.7035   24.6449 N.pl3       1 MOL      -0.2729
     45 N28        10.6404   -9.5638   24.5641 N.pl3       1 MOL      -0.2729
     46 C23        12.9457   -9.5578   22.8746 C.ar        1 MOL      -0.0633
     47 C22        14.0622   -9.6220   22.0183 C.ar        1 MOL      -0.0584
     48 H1          9.5521  -19.8436   14.8081 H           1 MOL       0.0578
     49 H2         10.8862  -20.3624   15.8438 H           1 MOL       0.0578
     50 H3         11.2177  -19.5146   14.3111 H           1 MOL       0.0578
     51 H4         14.3263  -16.0284   15.5785 H           1 MOL       0.0610
     52 H5         13.4701  -18.0415   19.1823 H           1 MOL       0.0614
     53 H6         12.2272  -16.7898   14.6689 H           1 MOL       0.0542
     54 H7         14.6838  -15.4440   19.8954 H           1 MOL       0.1706
     55 H8         15.1146  -17.9023   25.3717 H           1 MOL       0.0704
     56 H9         16.4108  -19.0705   25.5387 H           1 MOL       0.0704
     57 H10        17.6989  -18.1398   27.3634 H           1 MOL       0.0584
     58 H11        19.0113  -16.3881   28.3251 H           1 MOL       0.0701
     59 H12        17.8329  -13.7853   25.2036 H           1 MOL       0.0701
     60 H13        16.4842  -15.5306   24.2686 H           1 MOL       0.0584
     61 H14        15.9464  -15.6177   21.6124 H           1 MOL       0.0779
     62 H15        16.7235  -18.4758   21.2084 H           1 MOL       0.0547
     63 H16        15.0658  -18.1649   20.7865 H           1 MOL       0.0547
     64 H17        17.2320  -18.4676   23.3981 H           1 MOL       0.1881
     65 H18        17.3180  -14.0822   22.5518 H           1 MOL       0.0802
     66 H19        19.4276  -13.5336   23.2969 H           1 MOL       0.0313
     67 H20        19.1623  -12.0590   22.3484 H           1 MOL       0.0313
     68 H21        21.3232  -13.6021   21.8523 H           1 MOL       0.0287
     69 H22        20.3940  -12.9337   20.4835 H           1 MOL       0.0287
     70 H23        20.2115  -15.1895   19.9103 H           1 MOL       0.0524
     71 H24        20.3524  -15.7528   21.5910 H           1 MOL       0.0524
     72 H25        16.9040  -11.6302   22.2307 H           1 MOL       0.1878
     73 H26        15.4376  -11.3070   19.6893 H           1 MOL       0.0683
     74 H27        16.2197   -9.9863   20.5476 H           1 MOL       0.0683
     75 H28        14.1607  -12.9506   21.6005 H           1 MOL       0.0557
     76 H29        12.2967  -12.8522   23.0548 H           1 MOL       0.0599
     77 H30         9.8440  -11.6071   25.2178 H           1 MOL       0.3180
     78 H31        10.8678  -12.5685   24.4312 H           1 MOL       0.3180
     79 H32        10.9750   -8.7424   24.2726 H           1 MOL       0.3180
     80 H33         9.9060   -9.5715   25.1437 H           1 MOL       0.3180
     81 H34        12.6505   -8.6314   23.1886 H           1 MOL       0.0599
     82 H35        14.5259   -8.7518   21.7493 H           1 MOL       0.0557
@<TRIPOS>BOND
     1     1     3   1
     2     1     7   2
     3     1     8   2
     4    14     1  am
     5    12     2   1
     6     3     9  ar
     7     3    10  ar
     8     5     4   1
     9     6     5   1
    10    11     6  ar
    11    12     6  ar
    12     9    11  ar
    13    10    12  ar
    14    13    15   2
    15    25    13   1
    16    13    30  am
    17    25    14   1
    18    16    17   1
    19    29    16   1
    20    17    18  ar
    21    17    22  ar
    22    18    19  ar
    23    19    20  ar
    24    21    20  ar
    25    20    23   1
    26    22    21  ar
    27    23    24   3
    28    26    25   1
    29    27    26   1
    30    27    28   2
    31    27    29  am
    32    30    31   1
    33    30    36   1
    34    31    32   1
    35    31    34   1
    36    32    33   2
    37    32    37  am
    38    34    35   1
    39    35    36   1
    40    37    38   1
    41    38    39   1
    42    39    40  ar
    43    39    47  ar
    44    40    41  ar
    45    41    42  ar
    46    42    43   1
    47    42    46  ar
    48    43    44  ar
    49    43    45  ar
    50    46    47  ar
    51     4    48   1
    52     4    49   1
    53     4    50   1
    54     9    51   1
    55    10    52   1
    56    11    53   1
    57    14    54   1
    58    16    55   1
    59    16    56   1
    60    18    57   1
    61    19    58   1
    62    21    59   1
    63    22    60   1
    64    25    61   1
    65    26    62   1
    66    26    63   1
    67    29    64   1
    68    31    65   1
    69    34    66   1
    70    34    67   1
    71    35    68   1
    72    35    69   1
    73    36    70   1
    74    36    71   1
    75    37    72   1
    76    38    73   1
    77    38    74   1
    78    40    75   1
    79    41    76   1
    80    44    77   1
    81    44    78   1
    82    45    79   1
    83    45    80   1
    84    46    81   1
    85    47    82   1
@<TRIPOS>SUBSTRUCTURE
     1  MOL      2

