@<TRIPOS>MOLECULE
3utu_ligand_038
    82    85
SMALL
GAST_HUCK
****
This file was generated by PARSER (from files_GN.cpp)

@<TRIPOS>ATOM
      1 S8         19.7897  -17.2542   23.4459 S.o2        1 MOL       0.0657
      2 CL         25.1176  -17.9999   23.2443 Cl          1 MOL      -0.0788
      3 C35        21.2183  -17.5877   22.5141 C.ar        1 MOL       0.0977
      4 C10        24.9864  -19.2812   19.7382 C.3         1 MOL       0.0596
      5 O9         24.7370  -17.9709   20.2693 O.3         1 MOL      -0.3203
      6 C5         23.5889  -17.9028   21.0095 C.ar        1 MOL       0.1052
      7 O1         18.9772  -18.6255   23.3786 O.2         1 MOL      -0.1516
      8 O10        20.0714  -17.1470   25.0045 O.2         1 MOL      -0.1516
      9 C7         21.1622  -17.6195   21.1026 C.ar        1 MOL      -0.0438
     10 C3         22.4608  -17.7283   23.1624 C.ar        1 MOL      -0.0300
     11 C6         22.3439  -17.7653   20.3598 C.ar        1 MOL      -0.0306
     12 C4         23.6441  -17.8841   22.4199 C.ar        1 MOL       0.0696
     13 C13        19.8816  -14.2214   21.8254 C.2         1 MOL       0.2048
     14 N11        18.7068  -16.1328   22.7918 N.am        1 MOL      -0.2244
     15 O14        20.9202  -14.8560   21.8273 O.2         1 MOL      -0.3945
     16 C15        16.9719  -16.0138   26.6418 C.3         1 MOL       0.0687
     17 C31        17.5765  -17.0398   27.5299 C.ar        1 MOL      -0.0116
     18 C32        17.8160  -18.3529   27.0594 C.ar        1 MOL      -0.0467
     19 C33        18.4506  -19.3048   27.8801 C.ar        1 MOL      -0.0334
     20 C44        18.8606  -18.9611   29.1854 C.ar        1 MOL       0.0883
     21 C8         18.6240  -17.6539   29.6605 C.ar        1 MOL      -0.0334
     22 C9         17.9851  -16.7052   28.8405 C.ar        1 MOL      -0.0467
     23 C40        19.4539  -19.8374   29.9428 C.1         1 MOL       0.0934
     24 N63        19.9807  -20.6084   30.6098 N.1         1 MOL      -0.3338
     25 C45        18.8360  -14.6906   22.7494 C.3         1 MOL       0.1430
     26 C12        18.9899  -14.0528   24.1607 C.3         1 MOL       0.0742
     27 C46        17.8741  -14.4016   25.0294 C.2         1 MOL       0.1821
     28 O22        16.7977  -13.8429   24.8759 O.2         1 MOL      -0.3967
     29 N14        18.0116  -15.4023   25.8822 N.am        1 MOL      -0.2739
     30 N15        19.8429  -13.1034   21.0729 N.am        1 MOL      -0.2500
     31 C16        18.8357  -12.0682   21.1436 C.3         1 MOL       0.1338
     32 C17        17.5336  -12.3877   20.5591 C.2         1 MOL       0.2037
     33 O18        17.3637  -13.4619   19.9936 O.2         1 MOL      -0.3944
     34 C34        19.4866  -10.8516   20.4332 C.3         1 MOL      -0.0104
     35 C1         20.4717  -11.4797   19.4428 C.3         1 MOL      -0.0281
     36 C2         20.9151  -12.7526   20.1742 C.3         1 MOL       0.0369
     37 N19        16.5666  -11.4834   20.6557 N.am        1 MOL      -0.2737
     38 C20        15.2336  -11.6014   20.1531 C.3         1 MOL       0.0645
     39 C21        14.2600  -11.4700   21.2648 C.ar        1 MOL      -0.0210
     40 C26        13.5016  -12.5740   21.7098 C.ar        1 MOL      -0.0584
     41 C25        12.5421  -12.4250   22.7266 C.ar        1 MOL      -0.0633
     42 C24        12.2820  -11.1661   23.3308 C.ar        1 MOL       0.0188
     43 C27        11.2546  -11.0050   24.2819 C.cat       1 MOL       0.2318
     44 N29        10.6981  -11.9849   24.8788 N.pl3       1 MOL      -0.2729
     45 N28        10.7785   -9.8582   24.5957 N.pl3       1 MOL      -0.2729
     46 C23        13.0802  -10.0729   22.8984 C.ar        1 MOL      -0.0633
     47 C22        14.0503  -10.2204   21.8898 C.ar        1 MOL      -0.0584
     48 H1         25.9322  -19.2530   19.1997 H           1 MOL       0.0578
     49 H2         24.2034  -19.5770   19.0372 H           1 MOL       0.0578
     50 H3         25.0678  -20.0278   20.5320 H           1 MOL       0.0578
     51 H4         20.2709  -17.5035   20.6102 H           1 MOL       0.0610
     52 H5         22.5128  -17.6971   24.1807 H           1 MOL       0.0614
     53 H6         22.3023  -17.7619   19.3382 H           1 MOL       0.0542
     54 H7         17.9420  -16.5070   22.3293 H           1 MOL       0.1706
     55 H8         16.4464  -15.2477   27.2155 H           1 MOL       0.0704
     56 H9         16.2389  -16.4789   25.9828 H           1 MOL       0.0704
     57 H10        17.5405  -18.6169   26.1081 H           1 MOL       0.0584
     58 H11        18.6124  -20.2455   27.5094 H           1 MOL       0.0701
     59 H12        18.9170  -17.3728   30.5993 H           1 MOL       0.0701
     60 H13        17.8343  -15.7584   29.1963 H           1 MOL       0.0584
     61 H14        17.8759  -14.3643   22.3558 H           1 MOL       0.0779
     62 H15        19.0321  -12.9649   24.0929 H           1 MOL       0.0547
     63 H16        19.9344  -14.3821   24.5967 H           1 MOL       0.0547
     64 H17        18.8934  -15.7856   25.9560 H           1 MOL       0.1881
     65 H18        18.6832  -11.7981   22.1899 H           1 MOL       0.0802
     66 H19        20.0435  -10.2397   21.1510 H           1 MOL       0.0313
     67 H20        18.7708  -10.2010   19.9294 H           1 MOL       0.0313
     68 H21        21.3161  -10.8252   19.2221 H           1 MOL       0.0287
     69 H22        19.9574  -11.7291   18.5104 H           1 MOL       0.0287
     70 H23        21.1165  -13.5460   19.4494 H           1 MOL       0.0524
     71 H24        21.8212  -12.5525   20.7520 H           1 MOL       0.0524
     72 H25        16.7946  -10.6447   21.0891 H           1 MOL       0.1878
     73 H26        15.0800  -12.5360   19.6151 H           1 MOL       0.0683
     74 H27        15.0671  -10.7915   19.4395 H           1 MOL       0.0683
     75 H28        13.6307  -13.4963   21.2821 H           1 MOL       0.0557
     76 H29        12.0078  -13.2562   22.9903 H           1 MOL       0.0599
     77 H30         9.9938  -11.8279   25.4747 H           1 MOL       0.3180
     78 H31        10.9596  -12.8667   24.7128 H           1 MOL       0.3180
     79 H32        11.0986   -9.0790   24.1955 H           1 MOL       0.3180
     80 H33        10.0790   -9.7974   25.2144 H           1 MOL       0.3180
     81 H34        12.9697   -9.1445   23.3128 H           1 MOL       0.0599
     82 H35        14.5923   -9.4028   21.5982 H           1 MOL       0.0557
@<TRIPOS>BOND
     1     1     3   1
     2     1     7   2
     3     1     8   2
     4    14     1  am
     5    12     2   1
     6     3     9  ar
     7     3    10  ar
     8     5     4   1
     9     6     5   1
    10    11     6  ar
    11    12     6  ar
    12     9    11  ar
    13    10    12  ar
    14    13    15   2
    15    25    13   1
    16    13    30  am
    17    25    14   1
    18    16    17   1
    19    29    16   1
    20    17    18  ar
    21    17    22  ar
    22    18    19  ar
    23    19    20  ar
    24    21    20  ar
    25    20    23   1
    26    22    21  ar
    27    23    24   3
    28    26    25   1
    29    27    26   1
    30    27    28   2
    31    27    29  am
    32    30    31   1
    33    30    36   1
    34    31    32   1
    35    31    34   1
    36    32    33   2
    37    32    37  am
    38    34    35   1
    39    35    36   1
    40    37    38   1
    41    38    39   1
    42    39    40  ar
    43    39    47  ar
    44    40    41  ar
    45    41    42  ar
    46    42    43   1
    47    42    46  ar
    48    43    44  ar
    49    43    45  ar
    50    46    47  ar
    51     4    48   1
    52     4    49   1
    53     4    50   1
    54     9    51   1
    55    10    52   1
    56    11    53   1
    57    14    54   1
    58    16    55   1
    59    16    56   1
    60    18    57   1
    61    19    58   1
    62    21    59   1
    63    22    60   1
    64    25    61   1
    65    26    62   1
    66    26    63   1
    67    29    64   1
    68    31    65   1
    69    34    66   1
    70    34    67   1
    71    35    68   1
    72    35    69   1
    73    36    70   1
    74    36    71   1
    75    37    72   1
    76    38    73   1
    77    38    74   1
    78    40    75   1
    79    41    76   1
    80    44    77   1
    81    44    78   1
    82    45    79   1
    83    45    80   1
    84    46    81   1
    85    47    82   1
@<TRIPOS>SUBSTRUCTURE
     1  MOL      2

