@<TRIPOS>MOLECULE
3utu_ligand_021
    82    85
SMALL
GAST_HUCK
****
This file was generated by PARSER (from files_GN.cpp)

@<TRIPOS>ATOM
      1 S8         15.0363  -16.0190   21.5039 S.o2        1 MOL       0.0657
      2 CL         11.9130  -19.2954   18.5331 Cl          1 MOL      -0.0788
      3 C35        14.5559  -16.6583   19.9572 C.ar        1 MOL       0.0977
      4 C10        12.3053  -16.8259   15.6013 C.3         1 MOL       0.0596
      5 O9         13.1352  -17.8486   16.1920 O.3         1 MOL      -0.3203
      6 C5         13.6119  -17.4901   17.4241 C.ar        1 MOL       0.1052
      7 O1         14.3882  -14.5546   21.4525 O.2         1 MOL      -0.1516
      8 O10        14.3169  -16.7124   22.7464 O.2         1 MOL      -0.1516
      9 C7         15.0949  -16.1042   18.7764 C.ar        1 MOL      -0.0438
     10 C3         13.5613  -17.6572   19.8626 C.ar        1 MOL      -0.0300
     11 C6         14.6330  -16.5262   17.5229 C.ar        1 MOL      -0.0306
     12 C4         13.1005  -18.0871   18.6025 C.ar        1 MOL       0.0696
     13 C13        18.6923  -14.6102   21.7072 C.2         1 MOL       0.2048
     14 N11        16.7053  -15.8777   21.6969 N.am        1 MOL      -0.2244
     15 O14        19.4342  -15.5792   21.8127 O.2         1 MOL      -0.3945
     16 C15        16.1105  -18.0892   25.4358 C.3         1 MOL       0.0687
     17 C31        15.1173  -18.7831   24.5775 C.ar        1 MOL      -0.0116
     18 C32        13.8409  -19.1339   25.0737 C.ar        1 MOL      -0.0467
     19 C33        12.8820  -19.7257   24.2312 C.ar        1 MOL      -0.0334
     20 C44        13.1889  -19.9873   22.8788 C.ar        1 MOL       0.0883
     21 C8         14.4672  -19.6566   22.3806 C.ar        1 MOL      -0.0334
     22 C9         15.4187  -19.0548   23.2226 C.ar        1 MOL      -0.0467
     23 C40        12.3074  -20.5360   22.0955 C.1         1 MOL       0.0934
     24 N63        11.5319  -21.0189   21.3985 N.1         1 MOL      -0.3338
     25 C45        17.3745  -14.7789   22.3371 C.3         1 MOL       0.1430
     26 C12        17.4516  -14.9144   23.8973 C.3         1 MOL       0.0742
     27 C46        17.4545  -16.2684   24.4326 C.2         1 MOL       0.1821
     28 O22        18.4910  -16.9212   24.3985 O.2         1 MOL      -0.3967
     29 N14        16.3280  -16.7729   24.9188 N.am        1 MOL      -0.2739
     30 N15        19.1453  -13.5101   21.0696 N.am        1 MOL      -0.2500
     31 C16        18.4465  -12.2443   20.9071 C.3         1 MOL       0.1338
     32 C17        17.1536  -12.2610   20.2270 C.2         1 MOL       0.2037
     33 O18        16.8443  -13.2484   19.5735 O.2         1 MOL      -0.3944
     34 C34        19.4137  -11.3388   20.1102 C.3         1 MOL      -0.0104
     35 C1         20.7946  -11.9576   20.3288 C.3         1 MOL      -0.0281
     36 C2         20.4896  -13.4431   20.5660 C.3         1 MOL       0.0369
     37 N19        16.3486  -11.2000   20.3147 N.am        1 MOL      -0.2737
     38 C20        15.0240  -11.0931   19.7750 C.3         1 MOL       0.0645
     39 C21        13.9789  -10.9635   20.8264 C.ar        1 MOL      -0.0210
     40 C26        13.9506  -11.8536   21.9217 C.ar        1 MOL      -0.0584
     41 C25        12.8840  -11.8600   22.8309 C.ar        1 MOL      -0.0633
     42 C24        11.8468  -10.8934   22.7423 C.ar        1 MOL       0.0188
     43 C27        10.8606  -10.8276   23.7299 C.cat       1 MOL       0.2318
     44 N29        10.3846  -11.8689   24.3033 N.pl3       1 MOL      -0.2729
     45 N28        10.4173   -9.7032   24.1540 N.pl3       1 MOL      -0.2729
     46 C23        11.8853   -9.9827   21.6508 C.ar        1 MOL      -0.0633
     47 C22        12.9266  -10.0279   20.7029 C.ar        1 MOL      -0.0584
     48 H1         11.9320  -17.1955   14.6507 H           1 MOL       0.0578
     49 H2         12.8747  -15.9123   15.4112 H           1 MOL       0.0578
     50 H3         11.4473  -16.5908   16.2384 H           1 MOL       0.0578
     51 H4         15.8133  -15.3729   18.8257 H           1 MOL       0.0610
     52 H5         13.1539  -18.0518   20.7091 H           1 MOL       0.0614
     53 H6         15.0185  -16.1076   16.6722 H           1 MOL       0.0542
     54 H7         17.2244  -16.6890   21.5671 H           1 MOL       0.1706
     55 H8         17.0296  -18.6849   25.4913 H           1 MOL       0.0704
     56 H9         15.7415  -17.9741   26.4553 H           1 MOL       0.0704
     57 H10        13.5953  -18.9399   26.0495 H           1 MOL       0.0584
     58 H11        11.9614  -19.9569   24.6168 H           1 MOL       0.0701
     59 H12        14.7183  -19.8441   21.4054 H           1 MOL       0.0701
     60 H13        16.3350  -18.8060   22.8389 H           1 MOL       0.0584
     61 H14        16.7837  -13.8897   22.1639 H           1 MOL       0.0779
     62 H15        16.5970  -14.3725   24.3150 H           1 MOL       0.0547
     63 H16        18.3353  -14.3924   24.2720 H           1 MOL       0.0547
     64 H17        15.5472  -16.1941   24.8805 H           1 MOL       0.1881
     65 H18        18.3156  -11.8258   21.9087 H           1 MOL       0.0802
     66 H19        19.3844  -10.3029   20.4572 H           1 MOL       0.0313
     67 H20        19.2019  -11.3535   19.0330 H           1 MOL       0.0313
     68 H21        21.2620  -11.5287   21.2170 H           1 MOL       0.0287
     69 H22        21.4584  -11.8146   19.4701 H           1 MOL       0.0287
     70 H23        20.5626  -14.0153   19.6367 H           1 MOL       0.0524
     71 H24        21.2165  -13.8374   21.2841 H           1 MOL       0.0524
     72 H25        16.6838  -10.4293   20.8008 H           1 MOL       0.1878
     73 H26        14.7564  -11.9603   19.1678 H           1 MOL       0.0683
     74 H27        15.0152  -10.2288   19.1150 H           1 MOL       0.0683
     75 H28        14.7111  -12.5277   22.0565 H           1 MOL       0.0557
     76 H29        12.8881  -12.5607   23.5804 H           1 MOL       0.0599
     77 H30         9.7373  -11.7764   24.9699 H           1 MOL       0.3180
     78 H31        10.6595  -12.7277   24.0465 H           1 MOL       0.3180
     79 H32        10.7380   -8.8993   23.7968 H           1 MOL       0.3180
     80 H33         9.7854   -9.6812   24.8410 H           1 MOL       0.3180
     81 H34        11.1377   -9.2940   21.5231 H           1 MOL       0.0599
     82 H35        12.9021   -9.3761   19.9105 H           1 MOL       0.0557
@<TRIPOS>BOND
     1     1     3   1
     2     1     7   2
     3     1     8   2
     4    14     1  am
     5    12     2   1
     6     3     9  ar
     7     3    10  ar
     8     5     4   1
     9     6     5   1
    10    11     6  ar
    11    12     6  ar
    12     9    11  ar
    13    10    12  ar
    14    13    15   2
    15    25    13   1
    16    13    30  am
    17    25    14   1
    18    16    17   1
    19    29    16   1
    20    17    18  ar
    21    17    22  ar
    22    18    19  ar
    23    19    20  ar
    24    21    20  ar
    25    20    23   1
    26    22    21  ar
    27    23    24   3
    28    26    25   1
    29    27    26   1
    30    27    28   2
    31    27    29  am
    32    30    31   1
    33    30    36   1
    34    31    32   1
    35    31    34   1
    36    32    33   2
    37    32    37  am
    38    34    35   1
    39    35    36   1
    40    37    38   1
    41    38    39   1
    42    39    40  ar
    43    39    47  ar
    44    40    41  ar
    45    41    42  ar
    46    42    43   1
    47    42    46  ar
    48    43    44  ar
    49    43    45  ar
    50    46    47  ar
    51     4    48   1
    52     4    49   1
    53     4    50   1
    54     9    51   1
    55    10    52   1
    56    11    53   1
    57    14    54   1
    58    16    55   1
    59    16    56   1
    60    18    57   1
    61    19    58   1
    62    21    59   1
    63    22    60   1
    64    25    61   1
    65    26    62   1
    66    26    63   1
    67    29    64   1
    68    31    65   1
    69    34    66   1
    70    34    67   1
    71    35    68   1
    72    35    69   1
    73    36    70   1
    74    36    71   1
    75    37    72   1
    76    38    73   1
    77    38    74   1
    78    40    75   1
    79    41    76   1
    80    44    77   1
    81    44    78   1
    82    45    79   1
    83    45    80   1
    84    46    81   1
    85    47    82   1
@<TRIPOS>SUBSTRUCTURE
     1  MOL      2

