@<TRIPOS>MOLECULE
3utu_ligand_048
    82    85
SMALL
GAST_HUCK
****
This file was generated by PARSER (from files_GN.cpp)

@<TRIPOS>ATOM
      1 S8         19.8643  -16.6212   23.7243 S.o2        1 MOL       0.0657
      2 CL         23.4648  -18.1237   19.9431 Cl          1 MOL      -0.0788
      3 C35        20.3297  -17.6346   22.3786 C.ar        1 MOL       0.0977
      4 C10        21.1055  -21.2913   18.9706 C.3         1 MOL       0.0596
      5 O9         21.2771  -19.8667   18.9437 O.3         1 MOL      -0.3203
      6 C5         20.9882  -19.2015   20.1097 C.ar        1 MOL       0.1052
      7 O1         19.6147  -17.6470   24.9144 O.2         1 MOL      -0.1516
      8 O10        21.0390  -15.6521   24.1799 O.2         1 MOL      -0.1516
      9 C7         19.4107  -18.5648   21.8647 C.ar        1 MOL      -0.0438
     10 C3         21.6076  -17.5265   21.7821 C.ar        1 MOL      -0.0300
     11 C6         19.7226  -19.3261   20.7252 C.ar        1 MOL      -0.0306
     12 C4         21.9334  -18.3034   20.6533 C.ar        1 MOL       0.0696
     13 C13        17.9555  -13.9604   22.1080 C.2         1 MOL       0.2048
     14 N11        18.4207  -15.7530   23.5439 N.am        1 MOL      -0.2244
     15 O14        17.3098  -13.2691   22.8898 O.2         1 MOL      -0.3945
     16 C15        15.4910  -18.2326   25.0306 C.3         1 MOL       0.0687
     17 C31        16.2970  -18.0872   26.2837 C.ar        1 MOL      -0.0116
     18 C32        16.2249  -19.1159   27.2579 C.ar        1 MOL      -0.0467
     19 C33        16.9912  -19.0504   28.4366 C.ar        1 MOL      -0.0334
     20 C44        17.8693  -17.9681   28.6545 C.ar        1 MOL       0.0883
     21 C8         17.9367  -16.9276   27.7070 C.ar        1 MOL      -0.0334
     22 C9         17.1388  -16.9822   26.5460 C.ar        1 MOL      -0.0467
     23 C40        18.5936  -17.9087   29.7442 C.1         1 MOL       0.0934
     24 N63        19.2274  -17.8556   30.6986 N.1         1 MOL      -0.3338
     25 C45        17.7990  -15.4154   22.2923 C.3         1 MOL       0.1430
     26 C12        16.2931  -15.8632   22.2152 C.3         1 MOL       0.0742
     27 C46        16.0000  -17.1303   22.8653 C.2         1 MOL       0.1821
     28 O22        16.1952  -18.1737   22.2567 O.2         1 MOL      -0.3967
     29 N14        15.5920  -17.1262   24.1316 N.am        1 MOL      -0.2739
     30 N15        18.7811  -13.3492   21.2408 N.am        1 MOL      -0.2500
     31 C16        18.8755  -11.9109   21.1113 C.3         1 MOL       0.1338
     32 C17        17.7395  -11.3702   20.3549 C.2         1 MOL       0.2037
     33 O18        17.7649  -11.3180   19.1316 O.2         1 MOL      -0.3944
     34 C34        20.2597  -11.6720   20.4587 C.3         1 MOL      -0.0104
     35 C1         20.4823  -12.9349   19.6204 C.3         1 MOL      -0.0281
     36 C2         19.7358  -14.0243   20.4104 C.3         1 MOL       0.0369
     37 N19        16.6400  -11.0392   21.0161 N.am        1 MOL      -0.2737
     38 C20        15.4262  -10.5450   20.4511 C.3         1 MOL       0.0645
     39 C21        14.3546  -10.5929   21.4765 C.ar        1 MOL      -0.0210
     40 C26        13.8949   -9.4224   22.1136 C.ar        1 MOL      -0.0584
     41 C25        12.8763   -9.4871   23.0811 C.ar        1 MOL      -0.0633
     42 C24        12.2649  -10.7182   23.4430 C.ar        1 MOL       0.0188
     43 C27        11.1990  -10.7737   24.3702 C.cat       1 MOL       0.2318
     44 N29        10.6103  -11.8564   24.7060 N.pl3       1 MOL      -0.2729
     45 N28        10.7208   -9.7329   24.9399 N.pl3       1 MOL      -0.2729
     46 C23        12.7556  -11.8889   22.8044 C.ar        1 MOL      -0.0633
     47 C22        13.7821  -11.8286   21.8456 C.ar        1 MOL      -0.0584
     48 H1         21.5360  -21.6930   18.0517 H           1 MOL       0.0578
     49 H2         20.0468  -21.5573   18.9959 H           1 MOL       0.0578
     50 H3         21.6203  -21.7471   19.8208 H           1 MOL       0.0578
     51 H4         18.4948  -18.6789   22.2997 H           1 MOL       0.0610
     52 H5         22.2936  -16.8683   22.1601 H           1 MOL       0.0614
     53 H6         19.0179  -19.9573   20.3413 H           1 MOL       0.0542
     54 H7         18.0766  -15.3076   24.3334 H           1 MOL       0.1706
     55 H8         14.4371  -18.3316   25.2999 H           1 MOL       0.0704
     56 H9         15.7924  -19.1620   24.5417 H           1 MOL       0.0704
     57 H10        15.6139  -19.9231   27.1092 H           1 MOL       0.0584
     58 H11        16.9055  -19.8030   29.1251 H           1 MOL       0.0701
     59 H12        18.5540  -16.1225   27.8474 H           1 MOL       0.0701
     60 H13        17.1904  -16.1966   25.8996 H           1 MOL       0.0584
     61 H14        18.3074  -15.9627   21.4963 H           1 MOL       0.0779
     62 H15        16.0011  -15.9242   21.1627 H           1 MOL       0.0547
     63 H16        15.6415  -15.1012   22.6511 H           1 MOL       0.0547
     64 H17        15.3673  -16.2563   24.5011 H           1 MOL       0.1881
     65 H18        18.9083  -11.4275   22.0955 H           1 MOL       0.0802
     66 H19        21.0346  -11.6125   21.2291 H           1 MOL       0.0313
     67 H20        20.3075  -10.7635   19.8505 H           1 MOL       0.0313
     68 H21        21.5438  -13.1646   19.5130 H           1 MOL       0.0287
     69 H22        20.0424  -12.8117   18.6266 H           1 MOL       0.0287
     70 H23        19.2394  -14.7103   19.7246 H           1 MOL       0.0524
     71 H24        20.4389  -14.5768   21.0360 H           1 MOL       0.0524
     72 H25        16.6638  -11.1384   21.9798 H           1 MOL       0.1878
     73 H26        15.1236  -11.1519   19.5922 H           1 MOL       0.0683
     74 H27        15.5995   -9.5256   20.0949 H           1 MOL       0.0683
     75 H28        14.3000   -8.5126   21.8819 H           1 MOL       0.0557
     76 H29        12.5842   -8.6070   23.5094 H           1 MOL       0.0599
     77 H30         9.8919  -11.8259   25.3083 H           1 MOL       0.3180
     78 H31        10.8623  -12.6859   24.3513 H           1 MOL       0.3180
     79 H32        11.0679   -8.8835   24.7676 H           1 MOL       0.3180
     80 H33         9.9936   -9.8121   25.5239 H           1 MOL       0.3180
     81 H34        12.3705  -12.8102   23.0224 H           1 MOL       0.0599
     82 H35        14.1005  -12.6947   21.4050 H           1 MOL       0.0557
@<TRIPOS>BOND
     1     1     3   1
     2     1     7   2
     3     1     8   2
     4    14     1  am
     5    12     2   1
     6     3     9  ar
     7     3    10  ar
     8     5     4   1
     9     6     5   1
    10    11     6  ar
    11    12     6  ar
    12     9    11  ar
    13    10    12  ar
    14    13    15   2
    15    25    13   1
    16    13    30  am
    17    25    14   1
    18    16    17   1
    19    29    16   1
    20    17    18  ar
    21    17    22  ar
    22    18    19  ar
    23    19    20  ar
    24    21    20  ar
    25    20    23   1
    26    22    21  ar
    27    23    24   3
    28    26    25   1
    29    27    26   1
    30    27    28   2
    31    27    29  am
    32    30    31   1
    33    30    36   1
    34    31    32   1
    35    31    34   1
    36    32    33   2
    37    32    37  am
    38    34    35   1
    39    35    36   1
    40    37    38   1
    41    38    39   1
    42    39    40  ar
    43    39    47  ar
    44    40    41  ar
    45    41    42  ar
    46    42    43   1
    47    42    46  ar
    48    43    44  ar
    49    43    45  ar
    50    46    47  ar
    51     4    48   1
    52     4    49   1
    53     4    50   1
    54     9    51   1
    55    10    52   1
    56    11    53   1
    57    14    54   1
    58    16    55   1
    59    16    56   1
    60    18    57   1
    61    19    58   1
    62    21    59   1
    63    22    60   1
    64    25    61   1
    65    26    62   1
    66    26    63   1
    67    29    64   1
    68    31    65   1
    69    34    66   1
    70    34    67   1
    71    35    68   1
    72    35    69   1
    73    36    70   1
    74    36    71   1
    75    37    72   1
    76    38    73   1
    77    38    74   1
    78    40    75   1
    79    41    76   1
    80    44    77   1
    81    44    78   1
    82    45    79   1
    83    45    80   1
    84    46    81   1
    85    47    82   1
@<TRIPOS>SUBSTRUCTURE
     1  MOL      2

