@<TRIPOS>MOLECULE
3utu_ligand_027
    82    85
SMALL
GAST_HUCK
****
This file was generated by PARSER (from files_GN.cpp)

@<TRIPOS>ATOM
      1 S8         20.3302  -14.6280   25.8358 S.o2        1 MOL       0.0657
      2 CL         25.4678  -14.2099   24.1747 Cl          1 MOL      -0.0788
      3 C35        21.9699  -15.2210   25.7973 C.ar        1 MOL       0.0977
      4 C10        26.6173  -16.8283   26.9009 C.3         1 MOL       0.0596
      5 O9         25.8840  -16.7683   25.6632 O.3         1 MOL      -0.3203
      6 C5         24.6182  -16.2396   25.7481 C.ar        1 MOL       0.1052
      7 O1         19.8404  -14.6292   27.3482 O.2         1 MOL      -0.1516
      8 O10        20.2718  -13.1473   25.2600 O.2         1 MOL      -0.1516
      9 C7         22.2816  -16.4271   26.4551 C.ar        1 MOL      -0.0438
     10 C3         22.9779  -14.5448   25.0834 C.ar        1 MOL      -0.0300
     11 C6         23.5918  -16.9451   26.4108 C.ar        1 MOL      -0.0306
     12 C4         24.2937  -15.0474   25.0616 C.ar        1 MOL       0.0696
     13 C13        17.9084  -14.2294   23.7484 C.2         1 MOL       0.2048
     14 N11        19.3942  -15.7015   24.9295 N.am        1 MOL      -0.2244
     15 O14        17.0998  -13.4041   24.1606 O.2         1 MOL      -0.3945
     16 C15        16.1400  -19.3208   26.1227 C.3         1 MOL       0.0687
     17 C31        14.8256  -19.4857   26.7882 C.ar        1 MOL      -0.0116
     18 C32        13.6254  -19.3857   26.0439 C.ar        1 MOL      -0.0467
     19 C33        12.3742  -19.5379   26.6700 C.ar        1 MOL      -0.0334
     20 C44        12.3012  -19.7767   28.0591 C.ar        1 MOL       0.0883
     21 C8         13.4923  -19.8664   28.8108 C.ar        1 MOL      -0.0334
     22 C9         14.7410  -19.7237   28.1798 C.ar        1 MOL      -0.0467
     23 C40        11.1441  -19.9041   28.6492 C.1         1 MOL       0.0934
     24 N63        10.1280  -20.0101   29.1710 N.1         1 MOL      -0.3338
     25 C45        18.0436  -15.4841   24.5029 C.3         1 MOL       0.1430
     26 C12        17.0666  -15.6881   25.7102 C.3         1 MOL       0.0742
     27 C46        17.0773  -17.0389   26.2545 C.2         1 MOL       0.1821
     28 O22        17.7844  -17.2808   27.2224 O.2         1 MOL      -0.3967
     29 N14        16.2982  -17.9604   25.7085 N.am        1 MOL      -0.2739
     30 N15        18.5916  -13.9272   22.6254 N.am        1 MOL      -0.2500
     31 C16        18.4786  -12.6605   21.9324 C.3         1 MOL       0.1338
     32 C17        17.2131  -12.5034   21.2222 C.2         1 MOL       0.2037
     33 O18        16.7345  -13.4691   20.6380 O.2         1 MOL      -0.3944
     34 C34        19.6808  -12.6293   20.9575 C.3         1 MOL      -0.0104
     35 C1         19.9315  -14.1096   20.6611 C.3         1 MOL      -0.0281
     36 C2         19.5395  -14.7999   21.9819 C.3         1 MOL       0.0369
     37 N19        16.6319  -11.3133   21.1703 N.am        1 MOL      -0.2737
     38 C20        15.4178  -10.9790   20.5011 C.3         1 MOL       0.0645
     39 C21        14.3164  -10.9313   21.4921 C.ar        1 MOL      -0.0210
     40 C26        13.6959  -12.1191   21.9309 C.ar        1 MOL      -0.0584
     41 C25        12.6735  -12.0815   22.8960 C.ar        1 MOL      -0.0633
     42 C24        12.2280  -10.8570   23.4631 C.ar        1 MOL       0.0188
     43 C27        11.1769  -10.8205   24.4030 C.cat       1 MOL       0.2318
     44 N29        10.5990  -11.8692   24.8536 N.pl3       1 MOL      -0.2729
     45 N28        10.6970   -9.7290   24.8659 N.pl3       1 MOL      -0.2729
     46 C23        12.8732   -9.6723   23.0143 C.ar        1 MOL      -0.0633
     47 C22        13.8926   -9.7053   22.0449 C.ar        1 MOL      -0.0584
     48 H1         27.6502  -17.0887   26.6677 H           1 MOL       0.0578
     49 H2         26.2150  -17.6033   27.5554 H           1 MOL       0.0578
     50 H3         26.6194  -15.8713   27.4311 H           1 MOL       0.0578
     51 H4         21.5518  -16.9479   26.9460 H           1 MOL       0.0610
     52 H5         22.7632  -13.6881   24.5674 H           1 MOL       0.0614
     53 H6         23.7907  -17.8410   26.8558 H           1 MOL       0.0542
     54 H7         19.7224  -16.6118   24.8765 H           1 MOL       0.1706
     55 H8         16.1818  -19.9576   25.2372 H           1 MOL       0.0704
     56 H9         16.9546  -19.6433   26.7741 H           1 MOL       0.0704
     57 H10        13.6541  -19.2042   25.0375 H           1 MOL       0.0584
     58 H11        11.5213  -19.4671   26.1045 H           1 MOL       0.0701
     59 H12        13.4675  -20.0385   29.8206 H           1 MOL       0.0701
     60 H13        15.5910  -19.7803   28.7448 H           1 MOL       0.0584
     61 H14        17.8113  -16.2764   23.7829 H           1 MOL       0.0779
     62 H15        16.0498  -15.4588   25.3942 H           1 MOL       0.0547
     63 H16        17.3007  -14.9768   26.5050 H           1 MOL       0.0547
     64 H17        15.7380  -17.6750   24.9719 H           1 MOL       0.1881
     65 H18        18.6187  -11.8424   22.6476 H           1 MOL       0.0802
     66 H19        20.5604  -12.2056   21.4540 H           1 MOL       0.0313
     67 H20        19.4932  -12.0567   20.0423 H           1 MOL       0.0313
     68 H21        20.9694  -14.2968   20.3782 H           1 MOL       0.0287
     69 H22        19.2745  -14.4391   19.8509 H           1 MOL       0.0287
     70 H23        19.1073  -15.7801   21.7661 H           1 MOL       0.0524
     71 H24        20.4267  -14.9283   22.6067 H           1 MOL       0.0524
     72 H25        17.0668  -10.5923   21.6498 H           1 MOL       0.1878
     73 H26        15.1691  -11.6801   19.6997 H           1 MOL       0.0683
     74 H27        15.5701  -10.0082   20.0271 H           1 MOL       0.0683
     75 H28        13.9807  -13.0209   21.5403 H           1 MOL       0.0557
     76 H29        12.2583  -12.9759   23.1668 H           1 MOL       0.0599
     77 H30         9.8877  -11.7819   25.4576 H           1 MOL       0.3180
     78 H31        10.8604  -12.7269   24.5860 H           1 MOL       0.3180
     79 H32        11.0354   -8.9010   24.5988 H           1 MOL       0.3180
     80 H33         9.9834   -9.7515   25.4692 H           1 MOL       0.3180
     81 H34        12.6082   -8.7583   23.3855 H           1 MOL       0.0599
     82 H35        14.3224   -8.8243   21.7541 H           1 MOL       0.0557
@<TRIPOS>BOND
     1     1     3   1
     2     1     7   2
     3     1     8   2
     4    14     1  am
     5    12     2   1
     6     3     9  ar
     7     3    10  ar
     8     5     4   1
     9     6     5   1
    10    11     6  ar
    11    12     6  ar
    12     9    11  ar
    13    10    12  ar
    14    13    15   2
    15    25    13   1
    16    13    30  am
    17    25    14   1
    18    16    17   1
    19    29    16   1
    20    17    18  ar
    21    17    22  ar
    22    18    19  ar
    23    19    20  ar
    24    21    20  ar
    25    20    23   1
    26    22    21  ar
    27    23    24   3
    28    26    25   1
    29    27    26   1
    30    27    28   2
    31    27    29  am
    32    30    31   1
    33    30    36   1
    34    31    32   1
    35    31    34   1
    36    32    33   2
    37    32    37  am
    38    34    35   1
    39    35    36   1
    40    37    38   1
    41    38    39   1
    42    39    40  ar
    43    39    47  ar
    44    40    41  ar
    45    41    42  ar
    46    42    43   1
    47    42    46  ar
    48    43    44  ar
    49    43    45  ar
    50    46    47  ar
    51     4    48   1
    52     4    49   1
    53     4    50   1
    54     9    51   1
    55    10    52   1
    56    11    53   1
    57    14    54   1
    58    16    55   1
    59    16    56   1
    60    18    57   1
    61    19    58   1
    62    21    59   1
    63    22    60   1
    64    25    61   1
    65    26    62   1
    66    26    63   1
    67    29    64   1
    68    31    65   1
    69    34    66   1
    70    34    67   1
    71    35    68   1
    72    35    69   1
    73    36    70   1
    74    36    71   1
    75    37    72   1
    76    38    73   1
    77    38    74   1
    78    40    75   1
    79    41    76   1
    80    44    77   1
    81    44    78   1
    82    45    79   1
    83    45    80   1
    84    46    81   1
    85    47    82   1
@<TRIPOS>SUBSTRUCTURE
     1  MOL      2

