@<TRIPOS>MOLECULE
3utu_ligand_053
    82    85
SMALL
GAST_HUCK
****
This file was generated by PARSER (from files_GN.cpp)

@<TRIPOS>ATOM
      1 S8         15.8445  -17.8688   22.6428 S.o2        1 MOL       0.0657
      2 CL         16.4112  -20.6697   18.0434 Cl          1 MOL      -0.0788
      3 C35        15.8889  -19.3837   21.7893 C.ar        1 MOL       0.0977
      4 C10        17.3108  -23.7114   19.8382 C.3         1 MOL       0.0596
      5 O9         16.0198  -23.0801   19.8049 O.3         1 MOL      -0.3203
      6 C5         15.9946  -21.8660   20.4379 C.ar        1 MOL       0.1052
      7 O1         14.4786  -17.7268   23.4503 O.2         1 MOL      -0.1516
      8 O10        16.9481  -17.9756   23.7833 O.2         1 MOL      -0.1516
      9 C7         15.7004  -20.5880   22.4989 C.ar        1 MOL      -0.0438
     10 C3         16.1162  -19.4249   20.3982 C.ar        1 MOL      -0.0300
     11 C6         15.7449  -21.8181   21.8242 C.ar        1 MOL      -0.0306
     12 C4         16.1624  -20.6605   19.7195 C.ar        1 MOL       0.0696
     13 C13        16.6487  -14.2021   21.7131 C.2         1 MOL       0.2048
     14 N11        16.0683  -16.4859   21.7092 N.am        1 MOL      -0.2244
     15 O14        16.5163  -13.5966   22.7766 O.2         1 MOL      -0.3945
     16 C15        20.6728  -13.0545   21.3256 C.3         1 MOL       0.0687
     17 C31        20.8418  -12.8558   22.7963 C.ar        1 MOL      -0.0116
     18 C32        22.1188  -12.6677   23.3767 C.ar        1 MOL      -0.0467
     19 C33        22.2523  -12.3975   24.7529 C.ar        1 MOL      -0.0334
     20 C44        21.1102  -12.3488   25.5818 C.ar        1 MOL       0.0883
     21 C8         19.8385  -12.5704   25.0194 C.ar        1 MOL      -0.0334
     22 C9         19.7096  -12.7862   23.6377 C.ar        1 MOL      -0.0467
     23 C40        21.2095  -12.0776   26.8474 C.1         1 MOL       0.0934
     24 N63        21.2784  -11.8312   27.9682 N.1         1 MOL      -0.3338
     25 C45        17.1591  -15.5780   21.8724 C.3         1 MOL       0.1430
     26 C12        18.3613  -16.0257   20.9751 C.3         1 MOL       0.0742
     27 C46        19.5942  -15.2675   21.1963 C.2         1 MOL       0.1821
     28 O22        20.6031  -15.8560   21.5912 O.2         1 MOL      -0.3967
     29 N14        19.6191  -13.9580   20.9754 N.am        1 MOL      -0.2739
     30 N15        16.2725  -13.5532   20.5875 N.am        1 MOL      -0.2500
     31 C16        15.8631  -12.1674   20.6001 C.3         1 MOL       0.1338
     32 C17        14.5796  -11.9957   21.2786 C.2         1 MOL       0.2037
     33 O18        14.5300  -11.1473   22.1679 O.2         1 MOL      -0.3944
     34 C34        15.8452  -11.7118   19.1243 C.3         1 MOL      -0.0104
     35 C1         15.5726  -13.0060   18.3580 C.3         1 MOL      -0.0281
     36 C2         16.2177  -14.0978   19.2517 C.3         1 MOL       0.0369
     37 N19        13.5392  -12.7708   20.9924 N.am        1 MOL      -0.2737
     38 C20        12.2060  -12.7718   21.5382 C.3         1 MOL       0.0645
     39 C21        11.8089  -11.5909   22.3504 C.ar        1 MOL      -0.0210
     40 C26        11.6631  -11.6781   23.7569 C.ar        1 MOL      -0.0584
     41 C25        11.4664  -10.5166   24.5215 C.ar        1 MOL      -0.0633
     42 C24        11.4308   -9.2409   23.9091 C.ar        1 MOL       0.0188
     43 C27        11.3781   -8.0850   24.6675 C.cat       1 MOL       0.2318
     44 N29        12.2680   -7.1681   24.5457 N.pl3       1 MOL      -0.2729
     45 N28        10.4540   -7.8850   25.5338 N.pl3       1 MOL      -0.2729
     46 C23        11.5296   -9.1693   22.4980 C.ar        1 MOL      -0.0633
     47 C22        11.6998  -10.3320   21.7302 C.ar        1 MOL      -0.0584
     48 H1         17.2397  -24.6632   19.3104 H           1 MOL       0.0578
     49 H2         17.6296  -23.9161   20.8624 H           1 MOL       0.0578
     50 H3         18.0654  -23.1019   19.3371 H           1 MOL       0.0578
     51 H4         15.5316  -20.5748   23.5080 H           1 MOL       0.0610
     52 H5         16.2459  -18.5569   19.8717 H           1 MOL       0.0614
     53 H6         15.6017  -22.6839   22.3487 H           1 MOL       0.0542
     54 H7         15.5397  -16.4054   20.8987 H           1 MOL       0.1706
     55 H8         21.6028  -13.3922   20.8593 H           1 MOL       0.0704
     56 H9         20.4269  -12.0850   20.8895 H           1 MOL       0.0704
     57 H10        22.9559  -12.6913   22.7881 H           1 MOL       0.0584
     58 H11        23.1860  -12.2376   25.1372 H           1 MOL       0.0701
     59 H12        18.9949  -12.5636   25.5972 H           1 MOL       0.0701
     60 H13        18.7761  -12.8906   23.2461 H           1 MOL       0.0584
     61 H14        17.5273  -15.6708   22.9025 H           1 MOL       0.0779
     62 H15        18.0604  -15.9712   19.9095 H           1 MOL       0.0547
     63 H16        18.5556  -17.0886   21.2103 H           1 MOL       0.0547
     64 H17        18.8117  -13.5575   20.6065 H           1 MOL       0.1881
     65 H18        16.6407  -11.5736   21.0940 H           1 MOL       0.0802
     66 H19        16.8267  -11.3235   18.8276 H           1 MOL       0.0313
     67 H20        15.0951  -10.9455   18.9272 H           1 MOL       0.0313
     68 H21        15.9998  -12.9888   17.3507 H           1 MOL       0.0287
     69 H22        14.4946  -13.1686   18.2835 H           1 MOL       0.0287
     70 H23        15.5871  -15.0018   19.2185 H           1 MOL       0.0524
     71 H24        17.2410  -14.3313   18.8876 H           1 MOL       0.0524
     72 H25        13.6979  -13.4907   20.3599 H           1 MOL       0.1878
     73 H26        12.0925  -13.7000   22.1033 H           1 MOL       0.0683
     74 H27        11.5187  -12.8333   20.6872 H           1 MOL       0.0683
     75 H28        11.7703  -12.5785   24.2296 H           1 MOL       0.0557
     76 H29        11.4255  -10.6057   25.5425 H           1 MOL       0.0599
     77 H30        12.2164   -6.3993   25.0744 H           1 MOL       0.3180
     78 H31        12.9672   -7.2739   23.9327 H           1 MOL       0.3180
     79 H32         9.7793   -8.5182   25.6588 H           1 MOL       0.3180
     80 H33        10.4538   -7.1024   26.0376 H           1 MOL       0.3180
     81 H34        11.5097   -8.2669   22.0194 H           1 MOL       0.0599
     82 H35        11.8207  -10.2434   20.7180 H           1 MOL       0.0557
@<TRIPOS>BOND
     1     1     3   1
     2     1     7   2
     3     1     8   2
     4    14     1  am
     5    12     2   1
     6     3     9  ar
     7     3    10  ar
     8     5     4   1
     9     6     5   1
    10    11     6  ar
    11    12     6  ar
    12     9    11  ar
    13    10    12  ar
    14    13    15   2
    15    25    13   1
    16    13    30  am
    17    25    14   1
    18    16    17   1
    19    29    16   1
    20    17    18  ar
    21    17    22  ar
    22    18    19  ar
    23    19    20  ar
    24    21    20  ar
    25    20    23   1
    26    22    21  ar
    27    23    24   3
    28    26    25   1
    29    27    26   1
    30    27    28   2
    31    27    29  am
    32    30    31   1
    33    30    36   1
    34    31    32   1
    35    31    34   1
    36    32    33   2
    37    32    37  am
    38    34    35   1
    39    35    36   1
    40    37    38   1
    41    38    39   1
    42    39    40  ar
    43    39    47  ar
    44    40    41  ar
    45    41    42  ar
    46    42    43   1
    47    42    46  ar
    48    43    44  ar
    49    43    45  ar
    50    46    47  ar
    51     4    48   1
    52     4    49   1
    53     4    50   1
    54     9    51   1
    55    10    52   1
    56    11    53   1
    57    14    54   1
    58    16    55   1
    59    16    56   1
    60    18    57   1
    61    19    58   1
    62    21    59   1
    63    22    60   1
    64    25    61   1
    65    26    62   1
    66    26    63   1
    67    29    64   1
    68    31    65   1
    69    34    66   1
    70    34    67   1
    71    35    68   1
    72    35    69   1
    73    36    70   1
    74    36    71   1
    75    37    72   1
    76    38    73   1
    77    38    74   1
    78    40    75   1
    79    41    76   1
    80    44    77   1
    81    44    78   1
    82    45    79   1
    83    45    80   1
    84    46    81   1
    85    47    82   1
@<TRIPOS>SUBSTRUCTURE
     1  MOL      2

