@<TRIPOS>MOLECULE
3utu_ligand_036
    82    85
SMALL
GAST_HUCK
****
This file was generated by PARSER (from files_GN.cpp)

@<TRIPOS>ATOM
      1 S8         19.7890  -16.3533   22.5546 S.o2        1 MOL       0.0657
      2 CL         17.4602  -18.8420   18.3457 Cl          1 MOL      -0.0788
      3 C35        18.3732  -16.6942   21.5989 C.ar        1 MOL       0.0977
      4 C10        14.7581  -16.6442   18.2015 C.3         1 MOL       0.0596
      5 O9         14.9212  -17.5166   19.3353 O.3         1 MOL      -0.3203
      6 C5         16.0587  -17.2524   20.0536 C.ar        1 MOL       0.1052
      7 O1         20.0921  -17.4957   23.6279 O.2         1 MOL      -0.1516
      8 O10        21.0315  -16.3523   21.5577 O.2         1 MOL      -0.1516
      9 C7         17.1195  -16.1793   21.9863 C.ar        1 MOL      -0.0438
     10 C3         18.4508  -17.5420   20.4669 C.ar        1 MOL      -0.0300
     11 C6         15.9705  -16.4648   21.2194 C.ar        1 MOL      -0.0306
     12 C4         17.3051  -17.8175   19.6892 C.ar        1 MOL       0.0696
     13 C13        18.2355  -13.2999   22.6224 C.2         1 MOL       0.2048
     14 N11        19.9757  -14.8374   23.2622 N.am        1 MOL      -0.2244
     15 O14        17.1055  -12.8968   22.8950 O.2         1 MOL      -0.3945
     16 C15        22.9896  -13.6373   25.7371 C.3         1 MOL       0.0687
     17 C31        23.6562  -14.5648   24.7931 C.ar        1 MOL      -0.0116
     18 C32        22.9459  -15.6915   24.3142 C.ar        1 MOL      -0.0467
     19 C33        23.5283  -16.5682   23.3816 C.ar        1 MOL      -0.0334
     20 C44        24.8342  -16.3305   22.9074 C.ar        1 MOL       0.0883
     21 C8         25.5601  -15.2242   23.3957 C.ar        1 MOL      -0.0334
     22 C9         24.9811  -14.3503   24.3352 C.ar        1 MOL      -0.0467
     23 C40        25.3615  -17.1229   22.0200 C.1         1 MOL       0.0934
     24 N63        25.8244  -17.8232   21.2348 N.1         1 MOL      -0.3338
     25 C45        18.9105  -14.0059   23.7176 C.3         1 MOL       0.1430
     26 C12        19.4097  -12.9854   24.8020 C.3         1 MOL       0.0742
     27 C46        20.5328  -13.4409   25.5976 C.2         1 MOL       0.1821
     28 O22        20.3183  -14.1929   26.5453 O.2         1 MOL      -0.3967
     29 N14        21.7626  -13.1730   25.1772 N.am        1 MOL      -0.2739
     30 N15        18.7854  -12.9294   21.4428 N.am        1 MOL      -0.2500
     31 C16        18.0861  -12.1720   20.4242 C.3         1 MOL       0.1338
     32 C17        16.7700  -12.6685   20.0335 C.2         1 MOL       0.2037
     33 O18        16.6026  -13.8813   19.9310 O.2         1 MOL      -0.3944
     34 C34        19.0395  -12.1526   19.2023 C.3         1 MOL      -0.0104
     35 C1         20.4269  -12.2809   19.8276 C.3         1 MOL      -0.0281
     36 C2         20.1550  -13.1565   21.0682 C.3         1 MOL       0.0369
     37 N19        15.7924  -11.8039   19.8061 N.am        1 MOL      -0.2737
     38 C20        14.4581  -12.0895   19.3771 C.3         1 MOL       0.0645
     39 C21        13.5139  -11.8150   20.4841 C.ar        1 MOL      -0.0210
     40 C26        13.4808  -12.6518   21.6193 C.ar        1 MOL      -0.0584
     41 C25        12.5893  -12.3908   22.6755 C.ar        1 MOL      -0.0633
     42 C24        11.7151  -11.2758   22.6491 C.ar        1 MOL       0.0188
     43 C27        10.8408  -11.0143   23.7100 C.cat       1 MOL       0.2318
     44 N29        10.2830  -11.9484   24.3848 N.pl3       1 MOL      -0.2729
     45 N28        10.5365   -9.8262   24.0817 N.pl3       1 MOL      -0.2729
     46 C23        11.7610  -10.4360   21.5051 C.ar        1 MOL      -0.0633
     47 C22        12.6397  -10.7025   20.4396 C.ar        1 MOL      -0.0584
     48 H1         13.8081  -16.8797   17.7197 H           1 MOL       0.0578
     49 H2         15.5521  -16.7923   17.4653 H           1 MOL       0.0578
     50 H3         14.7358  -15.5937   18.4979 H           1 MOL       0.0578
     51 H4         17.0434  -15.5908   22.8280 H           1 MOL       0.0610
     52 H5         19.3437  -17.9703   20.2047 H           1 MOL       0.0614
     53 H6         15.0613  -16.0981   21.5098 H           1 MOL       0.0542
     54 H7         20.8713  -14.4649   23.2637 H           1 MOL       0.1706
     55 H8         23.6019  -12.7537   25.9181 H           1 MOL       0.0704
     56 H9         22.8470  -14.1451   26.6960 H           1 MOL       0.0704
     57 H10        21.9922  -15.8710   24.6365 H           1 MOL       0.0584
     58 H11        22.9801  -17.3688   23.0517 H           1 MOL       0.0701
     59 H12        26.5151  -15.0382   23.0730 H           1 MOL       0.0701
     60 H13        25.5222  -13.5487   24.6727 H           1 MOL       0.0584
     61 H14        18.1849  -14.6792   24.1932 H           1 MOL       0.0779
     62 H15        18.5831  -12.7582   25.4803 H           1 MOL       0.0547
     63 H16        19.6763  -12.0398   24.3182 H           1 MOL       0.0547
     64 H17        21.8396  -12.6377   24.3679 H           1 MOL       0.1881
     65 H18        17.9984  -11.1426   20.7991 H           1 MOL       0.0802
     66 H19        18.9425  -11.2296   18.6221 H           1 MOL       0.0313
     67 H20        18.8763  -13.0052   18.5322 H           1 MOL       0.0313
     68 H21        20.7922  -11.2945   20.1287 H           1 MOL       0.0287
     69 H22        21.1424  -12.7414   19.1432 H           1 MOL       0.0287
     70 H23        20.2938  -14.2081   20.8062 H           1 MOL       0.0524
     71 H24        20.8546  -12.8791   21.8616 H           1 MOL       0.0524
     72 H25        16.0080  -10.8612   19.9174 H           1 MOL       0.1878
     73 H26        14.3372  -13.1230   19.0400 H           1 MOL       0.0683
     74 H27        14.2546  -11.4453   18.5186 H           1 MOL       0.0683
     75 H28        14.1083  -13.4596   21.6817 H           1 MOL       0.0557
     76 H29        12.6072  -13.0205   23.4811 H           1 MOL       0.0599
     77 H30         9.6957  -11.7358   25.0789 H           1 MOL       0.3180
     78 H31        10.4314  -12.8458   24.1711 H           1 MOL       0.3180
     79 H32        10.9038   -9.0831   23.6493 H           1 MOL       0.3180
     80 H33         9.9463   -9.6979   24.7967 H           1 MOL       0.3180
     81 H34        11.1399   -9.6277   21.4233 H           1 MOL       0.0599
     82 H35        12.6474  -10.0753   19.6328 H           1 MOL       0.0557
@<TRIPOS>BOND
     1     1     3   1
     2     1     7   2
     3     1     8   2
     4    14     1  am
     5    12     2   1
     6     3     9  ar
     7     3    10  ar
     8     5     4   1
     9     6     5   1
    10    11     6  ar
    11    12     6  ar
    12     9    11  ar
    13    10    12  ar
    14    13    15   2
    15    25    13   1
    16    13    30  am
    17    25    14   1
    18    16    17   1
    19    29    16   1
    20    17    18  ar
    21    17    22  ar
    22    18    19  ar
    23    19    20  ar
    24    21    20  ar
    25    20    23   1
    26    22    21  ar
    27    23    24   3
    28    26    25   1
    29    27    26   1
    30    27    28   2
    31    27    29  am
    32    30    31   1
    33    30    36   1
    34    31    32   1
    35    31    34   1
    36    32    33   2
    37    32    37  am
    38    34    35   1
    39    35    36   1
    40    37    38   1
    41    38    39   1
    42    39    40  ar
    43    39    47  ar
    44    40    41  ar
    45    41    42  ar
    46    42    43   1
    47    42    46  ar
    48    43    44  ar
    49    43    45  ar
    50    46    47  ar
    51     4    48   1
    52     4    49   1
    53     4    50   1
    54     9    51   1
    55    10    52   1
    56    11    53   1
    57    14    54   1
    58    16    55   1
    59    16    56   1
    60    18    57   1
    61    19    58   1
    62    21    59   1
    63    22    60   1
    64    25    61   1
    65    26    62   1
    66    26    63   1
    67    29    64   1
    68    31    65   1
    69    34    66   1
    70    34    67   1
    71    35    68   1
    72    35    69   1
    73    36    70   1
    74    36    71   1
    75    37    72   1
    76    38    73   1
    77    38    74   1
    78    40    75   1
    79    41    76   1
    80    44    77   1
    81    44    78   1
    82    45    79   1
    83    45    80   1
    84    46    81   1
    85    47    82   1
@<TRIPOS>SUBSTRUCTURE
     1  MOL      2

