@<TRIPOS>MOLECULE
3utu_ligand_051
    82    85
SMALL
GAST_HUCK
****
This file was generated by PARSER (from files_GN.cpp)

@<TRIPOS>ATOM
      1 S8         17.4024  -15.8168   24.2629 S.o2        1 MOL       0.0657
      2 CL         13.4920  -19.2745   22.9866 Cl          1 MOL      -0.0788
      3 C35        16.3004  -17.0732   24.7721 C.ar        1 MOL       0.0977
      4 C10        12.3978  -19.8451   26.2046 C.3         1 MOL       0.0596
      5 O9         13.7407  -20.2370   25.8631 O.3         1 MOL      -0.3203
      6 C5         14.5478  -19.1912   25.4909 C.ar        1 MOL       0.1052
      7 O1         16.7335  -14.3709   24.2501 O.2         1 MOL      -0.1516
      8 O10        18.4893  -15.6055   25.4028 O.2         1 MOL      -0.1516
      9 C7         16.3609  -17.6450   26.0599 C.ar        1 MOL      -0.0438
     10 C3         15.3497  -17.5668   23.8585 C.ar        1 MOL      -0.0300
     11 C6         15.4872  -18.6905   26.4165 C.ar        1 MOL      -0.0306
     12 C4         14.5102  -18.6467   24.1879 C.ar        1 MOL       0.0696
     13 C13        17.7658  -14.4921   21.2531 C.2         1 MOL       0.2048
     14 N11        18.3432  -16.1553   22.8968 N.am        1 MOL      -0.2244
     15 O14        16.6133  -14.1378   21.4806 O.2         1 MOL      -0.3945
     16 C15        17.1941  -18.9022   17.6740 C.3         1 MOL       0.0687
     17 C31        17.2814  -17.9400   16.5441 C.ar        1 MOL      -0.0116
     18 C32        16.2565  -16.9867   16.3379 C.ar        1 MOL      -0.0467
     19 C33        16.4014  -15.9706   15.3744 C.ar        1 MOL      -0.0334
     20 C44        17.5859  -15.8868   14.6142 C.ar        1 MOL       0.0883
     21 C8         18.5780  -16.8796   14.7552 C.ar        1 MOL      -0.0334
     22 C9         18.4150  -17.9068   15.7025 C.ar        1 MOL      -0.0467
     23 C40        17.7945  -14.8647   13.8338 C.1         1 MOL       0.0934
     24 N63        17.9903  -13.9586   13.1570 N.1         1 MOL      -0.3338
     25 C45        18.0486  -15.9176   21.5068 C.3         1 MOL       0.1430
     26 C12        16.9801  -16.9093   20.9194 C.3         1 MOL       0.0742
     27 C46        17.0238  -17.1460   19.4861 C.2         1 MOL       0.1821
     28 O22        16.7896  -16.1938   18.7554 O.2         1 MOL      -0.3967
     29 N14        17.1850  -18.3864   19.0170 N.am        1 MOL      -0.2739
     30 N15        18.6576  -13.5583   20.8602 N.am        1 MOL      -0.2500
     31 C16        18.3619  -12.1465   20.6997 C.3         1 MOL       0.1338
     32 C17        17.1614  -11.8095   19.9328 C.2         1 MOL       0.2037
     33 O18        16.9969  -12.3370   18.8398 O.2         1 MOL      -0.3944
     34 C34        19.6268  -11.5402   20.0434 C.3         1 MOL      -0.0104
     35 C1         20.7508  -12.4615   20.5217 C.3         1 MOL      -0.0281
     36 C2         20.0547  -13.8268   20.6534 C.3         1 MOL       0.0369
     37 N19        16.2684  -10.9629   20.4389 N.am        1 MOL      -0.2737
     38 C20        14.9968  -10.6069   19.8844 C.3         1 MOL       0.0645
     39 C21        13.9537  -10.6546   20.9394 C.ar        1 MOL      -0.0210
     40 C26        13.9682   -9.7039   21.9837 C.ar        1 MOL      -0.0584
     41 C25        12.9920   -9.7263   22.9947 C.ar        1 MOL      -0.0633
     42 C24        11.9687  -10.7071   23.0039 C.ar        1 MOL       0.0188
     43 C27        10.9953  -10.7221   24.0078 C.cat       1 MOL       0.2318
     44 N29        10.5232   -9.6446   24.5010 N.pl3       1 MOL      -0.2729
     45 N28        10.5250  -11.8132   24.4864 N.pl3       1 MOL      -0.2729
     46 C23        11.9579  -11.6555   21.9496 C.ar        1 MOL      -0.0633
     47 C22        12.9274  -11.6250   20.9288 C.ar        1 MOL      -0.0584
     48 H1         11.8731  -20.7266   26.5727 H           1 MOL       0.0578
     49 H2         11.8553  -19.4729   25.3319 H           1 MOL       0.0578
     50 H3         12.3846  -19.0826   26.9891 H           1 MOL       0.0578
     51 H4         17.0409  -17.3126   26.7484 H           1 MOL       0.0610
     52 H5         15.2679  -17.1426   22.9419 H           1 MOL       0.0614
     53 H6         15.5463  -19.0972   27.3555 H           1 MOL       0.0542
     54 H7         19.1638  -16.6460   23.0747 H           1 MOL       0.1706
     55 H8         18.0162  -19.6208   17.6185 H           1 MOL       0.0704
     56 H9         16.2790  -19.4816   17.5427 H           1 MOL       0.0704
     57 H10        15.4221  -16.9957   16.9299 H           1 MOL       0.0584
     58 H11        15.6597  -15.2675   15.2825 H           1 MOL       0.0701
     59 H12        19.4408  -16.8459   14.2036 H           1 MOL       0.0701
     60 H13        19.1646  -18.5979   15.8101 H           1 MOL       0.0584
     61 H14        18.9814  -16.1915   21.0098 H           1 MOL       0.0779
     62 H15        15.9740  -16.5359   21.1213 H           1 MOL       0.0547
     63 H16        17.0820  -17.8699   21.4385 H           1 MOL       0.0547
     64 H17        17.3151  -19.0666   19.6978 H           1 MOL       0.1881
     65 H18        18.2778  -11.7244   21.7094 H           1 MOL       0.0802
     66 H19        19.7949  -10.5056   20.3542 H           1 MOL       0.0313
     67 H20        19.5795  -11.5761   18.9497 H           1 MOL       0.0313
     68 H21        21.1182  -12.1284   21.4971 H           1 MOL       0.0287
     69 H22        21.5886  -12.4925   19.8187 H           1 MOL       0.0287
     70 H23        20.1924  -14.4103   19.7387 H           1 MOL       0.0524
     71 H24        20.4982  -14.3690   21.4945 H           1 MOL       0.0524
     72 H25        16.5079  -10.5218   21.2713 H           1 MOL       0.1878
     73 H26        14.7247  -11.2428   19.0372 H           1 MOL       0.0683
     74 H27        15.0625   -9.5848   19.5115 H           1 MOL       0.0683
     75 H28        14.6901   -8.9807   22.0123 H           1 MOL       0.0557
     76 H29        13.0553   -9.0276   23.7410 H           1 MOL       0.0599
     77 H30         9.8604   -9.6782   25.1596 H           1 MOL       0.3180
     78 H31        10.8110   -8.8112   24.1875 H           1 MOL       0.3180
     79 H32        10.8316  -12.6465   24.1908 H           1 MOL       0.3180
     80 H33         9.8663  -11.7791   25.1484 H           1 MOL       0.3180
     81 H34        11.2253  -12.3682   21.8988 H           1 MOL       0.0599
     82 H35        12.8759  -12.3176   20.1769 H           1 MOL       0.0557
@<TRIPOS>BOND
     1     1     3   1
     2     1     7   2
     3     1     8   2
     4    14     1  am
     5    12     2   1
     6     3     9  ar
     7     3    10  ar
     8     5     4   1
     9     6     5   1
    10    11     6  ar
    11    12     6  ar
    12     9    11  ar
    13    10    12  ar
    14    13    15   2
    15    25    13   1
    16    13    30  am
    17    25    14   1
    18    16    17   1
    19    29    16   1
    20    17    18  ar
    21    17    22  ar
    22    18    19  ar
    23    19    20  ar
    24    21    20  ar
    25    20    23   1
    26    22    21  ar
    27    23    24   3
    28    26    25   1
    29    27    26   1
    30    27    28   2
    31    27    29  am
    32    30    31   1
    33    30    36   1
    34    31    32   1
    35    31    34   1
    36    32    33   2
    37    32    37  am
    38    34    35   1
    39    35    36   1
    40    37    38   1
    41    38    39   1
    42    39    40  ar
    43    39    47  ar
    44    40    41  ar
    45    41    42  ar
    46    42    43   1
    47    42    46  ar
    48    43    44  ar
    49    43    45  ar
    50    46    47  ar
    51     4    48   1
    52     4    49   1
    53     4    50   1
    54     9    51   1
    55    10    52   1
    56    11    53   1
    57    14    54   1
    58    16    55   1
    59    16    56   1
    60    18    57   1
    61    19    58   1
    62    21    59   1
    63    22    60   1
    64    25    61   1
    65    26    62   1
    66    26    63   1
    67    29    64   1
    68    31    65   1
    69    34    66   1
    70    34    67   1
    71    35    68   1
    72    35    69   1
    73    36    70   1
    74    36    71   1
    75    37    72   1
    76    38    73   1
    77    38    74   1
    78    40    75   1
    79    41    76   1
    80    44    77   1
    81    44    78   1
    82    45    79   1
    83    45    80   1
    84    46    81   1
    85    47    82   1
@<TRIPOS>SUBSTRUCTURE
     1  MOL      2

