@<TRIPOS>MOLECULE
3utu_ligand_025
    82    85
SMALL
GAST_HUCK
****
This file was generated by PARSER (from files_GN.cpp)

@<TRIPOS>ATOM
      1 S8         16.3106  -16.5216   23.1503 S.o2        1 MOL       0.0657
      2 CL         17.4408  -21.4175   21.1765 Cl          1 MOL      -0.0788
      3 C35        16.7525  -17.5281   21.7991 C.ar        1 MOL       0.0977
      4 C10        19.1102  -20.3463   18.3963 C.3         1 MOL       0.0596
      5 O9         17.7231  -19.9836   18.5297 O.3         1 MOL      -0.3203
      6 C5         17.4518  -19.1984   19.6199 C.ar        1 MOL       0.1052
      7 O1         14.8007  -16.8307   23.5450 O.2         1 MOL      -0.1516
      8 O10        17.1371  -17.0473   24.4021 O.2         1 MOL      -0.1516
      9 C7         16.9352  -16.9786   20.5139 C.ar        1 MOL      -0.0438
     10 C3         16.9196  -18.9173   21.9890 C.ar        1 MOL      -0.0300
     11 C6         17.2711  -17.8122   19.4319 C.ar        1 MOL      -0.0306
     12 C4         17.2634  -19.7535   20.9071 C.ar        1 MOL       0.0696
     13 C13        18.7626  -14.2748   22.7525 C.2         1 MOL       0.2048
     14 N11        16.4723  -14.8489   22.9697 N.am        1 MOL      -0.2244
     15 O14        19.3485  -15.3062   23.0727 O.2         1 MOL      -0.3945
     16 C15        20.8223  -12.3172   26.0139 C.3         1 MOL       0.0687
     17 C31        21.9667  -13.2202   25.7147 C.ar        1 MOL      -0.0116
     18 C32        22.0117  -14.5418   26.2187 C.ar        1 MOL      -0.0467
     19 C33        23.0945  -15.3904   25.9166 C.ar        1 MOL      -0.0334
     20 C44        24.1575  -14.9307   25.1114 C.ar        1 MOL       0.0883
     21 C8         24.1276  -13.6130   24.6131 C.ar        1 MOL      -0.0334
     22 C9         23.0397  -12.7723   24.9087 C.ar        1 MOL      -0.0467
     23 C40        25.1638  -15.7139   24.8397 C.1         1 MOL       0.0934
     24 N63        26.0524  -16.4025   24.5967 N.1         1 MOL      -0.3338
     25 C45        17.5214  -14.0192   23.4945 C.3         1 MOL       0.1430
     26 C12        17.5893  -14.0309   25.0659 C.3         1 MOL       0.0742
     27 C46        18.8734  -13.7893   25.7093 C.2         1 MOL       0.1821
     28 O22        19.2091  -14.5286   26.6281 O.2         1 MOL      -0.3967
     29 N14        19.6112  -12.7377   25.3751 N.am        1 MOL      -0.2739
     30 N15        19.2854  -13.5123   21.7719 N.am        1 MOL      -0.2500
     31 C16        18.7825  -12.2346   21.3109 C.3         1 MOL       0.1338
     32 C17        17.4943  -12.3336   20.6228 C.2         1 MOL       0.2037
     33 O18        17.3134  -13.2575   19.8367 O.2         1 MOL      -0.3944
     34 C34        19.8896  -11.6752   20.3817 C.3         1 MOL      -0.0104
     35 C1         20.6528  -12.9130   19.9059 C.3         1 MOL      -0.0281
     36 C2         20.4778  -13.9007   21.0682 C.3         1 MOL       0.0369
     37 N19        16.5828  -11.3836   20.8022 N.am        1 MOL      -0.2737
     38 C20        15.2762  -11.3147   20.2192 C.3         1 MOL       0.0645
     39 C21        14.2383  -11.2379   21.2806 C.ar        1 MOL      -0.0210
     40 C26        14.0537  -10.0431   22.0106 C.ar        1 MOL      -0.0584
     41 C25        13.0362   -9.9390   22.9782 C.ar        1 MOL      -0.0633
     42 C24        12.1653  -11.0236   23.2628 C.ar        1 MOL       0.0188
     43 C27        11.1139  -10.9052   24.1883 C.cat       1 MOL       0.2318
     44 N29        10.5539   -9.7816   24.4533 N.pl3       1 MOL      -0.2729
     45 N28        10.6222  -11.9036   24.8126 N.pl3       1 MOL      -0.2729
     46 C23        12.3879  -12.2296   22.5480 C.ar        1 MOL      -0.0633
     47 C22        13.3986  -12.3341   21.5739 C.ar        1 MOL      -0.0584
     48 H1         19.2223  -20.9249   17.4794 H           1 MOL       0.0578
     49 H2         19.4416  -20.9699   19.2289 H           1 MOL       0.0578
     50 H3         19.7522  -19.4648   18.3279 H           1 MOL       0.0578
     51 H4         16.8144  -15.9769   20.3518 H           1 MOL       0.0610
     52 H5         16.7841  -19.3242   22.9171 H           1 MOL       0.0614
     53 H6         17.3806  -17.4083   18.4988 H           1 MOL       0.0542
     54 H7         15.8292  -14.4164   22.3859 H           1 MOL       0.1706
     55 H8         21.0611  -11.3088   25.6634 H           1 MOL       0.0704
     56 H9         20.6612  -12.2356   27.0918 H           1 MOL       0.0704
     57 H10        21.2599  -14.8975   26.8112 H           1 MOL       0.0584
     58 H11        23.0917  -16.3450   26.2902 H           1 MOL       0.0701
     59 H12        24.8901  -13.2534   24.0279 H           1 MOL       0.0701
     60 H13        23.0364  -11.8250   24.5274 H           1 MOL       0.0584
     61 H14        17.1786  -13.0130   23.2497 H           1 MOL       0.0779
     62 H15        17.1808  -14.9760   25.4395 H           1 MOL       0.0547
     63 H16        16.9008  -13.2737   25.4477 H           1 MOL       0.0547
     64 H17        19.2842  -12.1773   24.6530 H           1 MOL       0.1881
     65 H18        18.7034  -11.5566   22.1686 H           1 MOL       0.0802
     66 H19        20.5697  -11.0287   20.9453 H           1 MOL       0.0313
     67 H20        19.4933  -11.1026   19.5376 H           1 MOL       0.0313
     68 H21        21.7074  -12.6963   19.7150 H           1 MOL       0.0287
     69 H22        20.1967  -13.3099   18.9933 H           1 MOL       0.0287
     70 H23        20.3887  -14.9172   20.6715 H           1 MOL       0.0524
     71 H24        21.3396  -13.8494   21.7411 H           1 MOL       0.0524
     72 H25        16.8353  -10.6332   21.3703 H           1 MOL       0.1878
     73 H26        15.0860  -12.1603   19.5542 H           1 MOL       0.0683
     74 H27        15.2239  -10.4107   19.6079 H           1 MOL       0.0683
     75 H28        14.6564   -9.2360   21.8314 H           1 MOL       0.0557
     76 H29        12.9486   -9.0538   23.4816 H           1 MOL       0.0599
     77 H30         9.8456   -9.7462   25.0610 H           1 MOL       0.3180
     78 H31        10.8292   -8.9982   24.0278 H           1 MOL       0.3180
     79 H32        10.9586  -12.7668   24.6859 H           1 MOL       0.3180
     80 H33         9.9076  -11.7795   25.4027 H           1 MOL       0.3180
     81 H34        11.7863  -13.0424   22.6976 H           1 MOL       0.0599
     82 H35        13.5095  -13.2146   21.0685 H           1 MOL       0.0557
@<TRIPOS>BOND
     1     1     3   1
     2     1     7   2
     3     1     8   2
     4    14     1  am
     5    12     2   1
     6     3     9  ar
     7     3    10  ar
     8     5     4   1
     9     6     5   1
    10    11     6  ar
    11    12     6  ar
    12     9    11  ar
    13    10    12  ar
    14    13    15   2
    15    25    13   1
    16    13    30  am
    17    25    14   1
    18    16    17   1
    19    29    16   1
    20    17    18  ar
    21    17    22  ar
    22    18    19  ar
    23    19    20  ar
    24    21    20  ar
    25    20    23   1
    26    22    21  ar
    27    23    24   3
    28    26    25   1
    29    27    26   1
    30    27    28   2
    31    27    29  am
    32    30    31   1
    33    30    36   1
    34    31    32   1
    35    31    34   1
    36    32    33   2
    37    32    37  am
    38    34    35   1
    39    35    36   1
    40    37    38   1
    41    38    39   1
    42    39    40  ar
    43    39    47  ar
    44    40    41  ar
    45    41    42  ar
    46    42    43   1
    47    42    46  ar
    48    43    44  ar
    49    43    45  ar
    50    46    47  ar
    51     4    48   1
    52     4    49   1
    53     4    50   1
    54     9    51   1
    55    10    52   1
    56    11    53   1
    57    14    54   1
    58    16    55   1
    59    16    56   1
    60    18    57   1
    61    19    58   1
    62    21    59   1
    63    22    60   1
    64    25    61   1
    65    26    62   1
    66    26    63   1
    67    29    64   1
    68    31    65   1
    69    34    66   1
    70    34    67   1
    71    35    68   1
    72    35    69   1
    73    36    70   1
    74    36    71   1
    75    37    72   1
    76    38    73   1
    77    38    74   1
    78    40    75   1
    79    41    76   1
    80    44    77   1
    81    44    78   1
    82    45    79   1
    83    45    80   1
    84    46    81   1
    85    47    82   1
@<TRIPOS>SUBSTRUCTURE
     1  MOL      2

