@<TRIPOS>MOLECULE
3utu_ligand_085
    82    85
SMALL
GAST_HUCK
****
This file was generated by PARSER (from files_GN.cpp)

@<TRIPOS>ATOM
      1 S8         17.0490  -16.0424   23.7959 S.o2        1 MOL       0.0657
      2 CL         19.7758  -18.6521   27.6619 Cl          1 MOL      -0.0788
      3 C35        17.0810  -17.1729   25.1163 C.ar        1 MOL       0.0977
      4 C10        16.7926  -19.3180   29.5959 C.3         1 MOL       0.0596
      5 O9         17.1048  -19.8940   28.3162 O.3         1 MOL      -0.3203
      6 C5         17.1067  -18.9814   27.2930 C.ar        1 MOL       0.1052
      7 O1         16.2273  -16.6089   22.5581 O.2         1 MOL      -0.1516
      8 O10        16.2297  -14.7886   24.3333 O.2         1 MOL      -0.1516
      9 C7         15.8953  -17.8242   25.5121 C.ar        1 MOL      -0.0438
     10 C3         18.2825  -17.4406   25.8042 C.ar        1 MOL      -0.0300
     11 C6         15.9110  -18.7313   26.5866 C.ar        1 MOL      -0.0306
     12 C4         18.3013  -18.3429   26.8846 C.ar        1 MOL       0.0696
     13 C13        20.0076  -13.9086   22.3010 C.2         1 MOL       0.2048
     14 N11        18.5682  -15.5085   23.2844 N.am        1 MOL      -0.2244
     15 O14        20.9623  -14.6833   22.3182 O.2         1 MOL      -0.3945
     16 C15        22.8725  -14.6620   25.8621 C.3         1 MOL       0.0687
     17 C31        23.5941  -15.3139   24.7324 C.ar        1 MOL      -0.0116
     18 C32        24.8969  -14.8968   24.3683 C.ar        1 MOL      -0.0467
     19 C33        25.6116  -15.5588   23.3513 C.ar        1 MOL      -0.0334
     20 C44        25.0312  -16.6507   22.6714 C.ar        1 MOL       0.0883
     21 C8         23.7337  -17.0762   23.0262 C.ar        1 MOL      -0.0334
     22 C9         23.0329  -16.4247   24.0566 C.ar        1 MOL      -0.0467
     23 C40        25.6860  -17.2677   21.7301 C.1         1 MOL       0.0934
     24 N63        26.2598  -17.8150   20.8982 N.1         1 MOL      -0.3338
     25 C45        18.9848  -14.1348   23.3351 C.3         1 MOL       0.1430
     26 C12        19.3831  -13.6868   24.7879 C.3         1 MOL       0.0742
     27 C46        20.8040  -13.5661   25.0841 C.2         1 MOL       0.1821
     28 O22        21.3901  -12.5499   24.7296 O.2         1 MOL      -0.3967
     29 N14        21.4569  -14.5673   25.6559 N.am        1 MOL      -0.2739
     30 N15        19.9988  -12.9121   21.3952 N.am        1 MOL      -0.2500
     31 C16        18.9730  -11.9025   21.2525 C.3         1 MOL       0.1338
     32 C17        17.7320  -12.3867   20.6451 C.2         1 MOL       0.2037
     33 O18        17.7163  -13.4651   20.0644 O.2         1 MOL      -0.3944
     34 C34        19.6420  -10.7914   20.4110 C.3         1 MOL      -0.0104
     35 C1         20.7113  -11.5254   19.5942 C.3         1 MOL      -0.0281
     36 C2         21.1050  -12.7009   20.5018 C.3         1 MOL       0.0369
     37 N19        16.6397  -11.6393   20.7482 N.am        1 MOL      -0.2737
     38 C20        15.3176  -11.9739   20.3071 C.3         1 MOL       0.0645
     39 C21        14.3344  -11.7589   21.4018 C.ar        1 MOL      -0.0210
     40 C26        13.5980  -12.8243   21.9632 C.ar        1 MOL      -0.0584
     41 C25        12.6048  -12.5816   22.9322 C.ar        1 MOL      -0.0633
     42 C24        12.3016  -11.2669   23.3806 C.ar        1 MOL       0.0188
     43 C27        11.2567  -11.0103   24.2949 C.cat       1 MOL       0.2318
     44 N29        10.6569  -11.9286   24.9517 N.pl3       1 MOL      -0.2729
     45 N28        10.8032   -9.8364   24.5241 N.pl3       1 MOL      -0.2729
     46 C23        13.0883  -10.2149   22.8411 C.ar        1 MOL      -0.0633
     47 C22        14.0824  -10.4538   21.8750 C.ar        1 MOL      -0.0584
     48 H1         16.8512  -20.1095   30.3420 H           1 MOL       0.0578
     49 H2         15.7796  -18.9086   29.6107 H           1 MOL       0.0578
     50 H3         17.5060  -18.5370   29.8714 H           1 MOL       0.0578
     51 H4         15.0169  -17.6490   25.0182 H           1 MOL       0.0610
     52 H5         19.1520  -16.9867   25.5178 H           1 MOL       0.0614
     53 H6         15.0475  -19.2112   26.8535 H           1 MOL       0.0542
     54 H7         19.2398  -16.1884   23.1064 H           1 MOL       0.1706
     55 H8         23.2922  -13.6755   26.0855 H           1 MOL       0.0704
     56 H9         23.0207  -15.2795   26.7503 H           1 MOL       0.0704
     57 H10        25.3486  -14.1213   24.8592 H           1 MOL       0.0584
     58 H11        26.5616  -15.2455   23.1276 H           1 MOL       0.0701
     59 H12        23.2930  -17.8708   22.5529 H           1 MOL       0.0701
     60 H13        22.1030  -16.7686   24.3127 H           1 MOL       0.0584
     61 H14        18.0963  -13.5588   23.0767 H           1 MOL       0.0779
     62 H15        18.9205  -14.3635   25.5116 H           1 MOL       0.0547
     63 H16        18.9265  -12.7131   24.9856 H           1 MOL       0.0547
     64 H17        20.9345  -15.3439   25.9102 H           1 MOL       0.1881
     65 H18        18.7418  -11.4787   22.2356 H           1 MOL       0.0802
     66 H19        20.1274  -10.0586   21.0614 H           1 MOL       0.0313
     67 H20        18.9354  -10.2621   19.7720 H           1 MOL       0.0313
     68 H21        21.5689  -10.8863   19.3676 H           1 MOL       0.0287
     69 H22        20.2786  -11.8952   18.6598 H           1 MOL       0.0287
     70 H23        21.2954  -13.5903   19.8948 H           1 MOL       0.0524
     71 H24        22.0049  -12.4548   21.0777 H           1 MOL       0.0524
     72 H25        16.7435  -10.7721   21.1790 H           1 MOL       0.1878
     73 H26        15.2595  -12.9996   19.9325 H           1 MOL       0.0683
     74 H27        15.0616  -11.3170   19.4727 H           1 MOL       0.0683
     75 H28        13.7673  -13.7855   21.6558 H           1 MOL       0.0557
     76 H29        12.0836  -13.3871   23.2805 H           1 MOL       0.0599
     77 H30         9.9495  -11.7040   25.5234 H           1 MOL       0.3180
     78 H31        10.8935  -12.8270   24.8561 H           1 MOL       0.3180
     79 H32        11.1540   -9.0896   24.0851 H           1 MOL       0.3180
     80 H33        10.0911   -9.7164   25.1235 H           1 MOL       0.3180
     81 H34        12.9460   -9.2471   23.1360 H           1 MOL       0.0599
     82 H35        14.6135   -9.6614   21.5035 H           1 MOL       0.0557
@<TRIPOS>BOND
     1     1     3   1
     2     1     7   2
     3     1     8   2
     4    14     1  am
     5    12     2   1
     6     3     9  ar
     7     3    10  ar
     8     5     4   1
     9     6     5   1
    10    11     6  ar
    11    12     6  ar
    12     9    11  ar
    13    10    12  ar
    14    13    15   2
    15    25    13   1
    16    13    30  am
    17    25    14   1
    18    16    17   1
    19    29    16   1
    20    17    18  ar
    21    17    22  ar
    22    18    19  ar
    23    19    20  ar
    24    21    20  ar
    25    20    23   1
    26    22    21  ar
    27    23    24   3
    28    26    25   1
    29    27    26   1
    30    27    28   2
    31    27    29  am
    32    30    31   1
    33    30    36   1
    34    31    32   1
    35    31    34   1
    36    32    33   2
    37    32    37  am
    38    34    35   1
    39    35    36   1
    40    37    38   1
    41    38    39   1
    42    39    40  ar
    43    39    47  ar
    44    40    41  ar
    45    41    42  ar
    46    42    43   1
    47    42    46  ar
    48    43    44  ar
    49    43    45  ar
    50    46    47  ar
    51     4    48   1
    52     4    49   1
    53     4    50   1
    54     9    51   1
    55    10    52   1
    56    11    53   1
    57    14    54   1
    58    16    55   1
    59    16    56   1
    60    18    57   1
    61    19    58   1
    62    21    59   1
    63    22    60   1
    64    25    61   1
    65    26    62   1
    66    26    63   1
    67    29    64   1
    68    31    65   1
    69    34    66   1
    70    34    67   1
    71    35    68   1
    72    35    69   1
    73    36    70   1
    74    36    71   1
    75    37    72   1
    76    38    73   1
    77    38    74   1
    78    40    75   1
    79    41    76   1
    80    44    77   1
    81    44    78   1
    82    45    79   1
    83    45    80   1
    84    46    81   1
    85    47    82   1
@<TRIPOS>SUBSTRUCTURE
     1  MOL      2

