@<TRIPOS>MOLECULE
3utu_ligand_019
    82    85
SMALL
GAST_HUCK
****
This file was generated by PARSER (from files_GN.cpp)

@<TRIPOS>ATOM
      1 S8         19.9449  -14.2586   26.0756 S.o2        1 MOL       0.0657
      2 CL         21.6084  -19.1748   27.5856 Cl          1 MOL      -0.0788
      3 C35        19.6544  -15.7574   26.9090 C.ar        1 MOL       0.0977
      4 C10        19.4060  -18.9226   30.6931 C.3         1 MOL       0.0596
      5 O9         19.1315  -19.1712   29.3011 O.3         1 MOL      -0.3203
      6 C5         19.3073  -18.0721   28.5000 C.ar        1 MOL       0.1052
      7 O1         19.9515  -13.1121   27.1819 O.2         1 MOL      -0.1516
      8 O10        21.3846  -14.1382   25.4044 O.2         1 MOL      -0.1516
      9 C7         18.4963  -15.9051   27.7024 C.ar        1 MOL      -0.0438
     10 C3         20.6061  -16.7982   26.8669 C.ar        1 MOL      -0.0300
     11 C6         18.3261  -17.0644   28.4864 C.ar        1 MOL      -0.0306
     12 C4         20.4322  -17.9584   27.6503 C.ar        1 MOL       0.0696
     13 C13        18.2260  -13.2087   22.7878 C.2         1 MOL       0.2048
     14 N11        18.7457  -13.7771   24.9953 N.am        1 MOL      -0.2244
     15 O14        17.1604  -12.6598   23.0542 O.2         1 MOL      -0.3945
     16 C15        14.9211  -15.9630   20.9848 C.3         1 MOL       0.0687
     17 C31        15.5627  -16.3152   19.6847 C.ar        1 MOL      -0.0116
     18 C32        16.1900  -17.5689   19.5097 C.ar        1 MOL      -0.0467
     19 C33        16.7164  -17.9476   18.2593 C.ar        1 MOL      -0.0334
     20 C44        16.6763  -17.0496   17.1725 C.ar        1 MOL       0.0883
     21 C8         16.0863  -15.7768   17.3467 C.ar        1 MOL      -0.0334
     22 C9         15.5310  -15.4217   18.5878 C.ar        1 MOL      -0.0467
     23 C40        17.1764  -17.3882   16.0196 C.1         1 MOL       0.0934
     24 N63        17.6047  -17.6927   14.9963 N.1         1 MOL      -0.3338
     25 C45        18.5925  -14.3210   23.6781 C.3         1 MOL       0.1430
     26 C12        17.5595  -15.4965   23.6844 C.3         1 MOL       0.0742
     27 C46        17.0191  -15.8431   22.3684 C.2         1 MOL       0.1821
     28 O22        17.7901  -16.1774   21.4722 O.2         1 MOL      -0.3967
     29 N14        15.7102  -15.7589   22.1644 N.am        1 MOL      -0.2739
     30 N15        18.9226  -12.7963   21.7144 N.am        1 MOL      -0.2500
     31 C16        18.5244  -11.6783   20.8873 C.3         1 MOL       0.1338
     32 C17        17.2954  -11.9444   20.1475 C.2         1 MOL       0.2037
     33 O18        17.2530  -12.9207   19.4021 O.2         1 MOL      -0.3944
     34 C34        19.7358  -11.3940   19.9630 C.3         1 MOL      -0.0104
     35 C1         20.5076  -12.7206   19.9245 C.3         1 MOL      -0.0281
     36 C2         20.1664  -13.3746   21.2741 C.3         1 MOL       0.0369
     37 N19        16.2543  -11.1370   20.2888 N.am        1 MOL      -0.2737
     38 C20        14.9631  -11.2730   19.6845 C.3         1 MOL       0.0645
     39 C21        13.9029  -11.1707   20.7155 C.ar        1 MOL      -0.0210
     40 C26        12.9462  -10.1276   20.6880 C.ar        1 MOL      -0.0584
     41 C25        11.9448  -10.0420   21.6736 C.ar        1 MOL      -0.0633
     42 C24        11.8639  -10.9922   22.7260 C.ar        1 MOL       0.0188
     43 C27        10.9128  -10.8648   23.7457 C.cat       1 MOL       0.2318
     44 N29        10.4586   -9.7251   24.1217 N.pl3       1 MOL      -0.2729
     45 N28        10.4364  -11.8704   24.3854 N.pl3       1 MOL      -0.2729
     46 C23        12.8119  -12.0492   22.7273 C.ar        1 MOL      -0.0633
     47 C22        13.8185  -12.1299   21.7508 C.ar        1 MOL      -0.0584
     48 H1         19.2576  -19.8531   31.2395 H           1 MOL       0.0578
     49 H2         18.7288  -18.1692   31.1072 H           1 MOL       0.0578
     50 H3         20.4409  -18.6012   30.8467 H           1 MOL       0.0578
     51 H4         17.7871  -15.1719   27.7291 H           1 MOL       0.0610
     52 H5         21.4385  -16.7065   26.2821 H           1 MOL       0.0614
     53 H6         17.4936  -17.1585   29.0682 H           1 MOL       0.0542
     54 H7         18.0295  -13.2162   25.3405 H           1 MOL       0.1706
     55 H8         14.2115  -16.7663   21.2280 H           1 MOL       0.0704
     56 H9         14.3316  -15.0490   20.8731 H           1 MOL       0.0704
     57 H10        16.1988  -18.2489   20.2829 H           1 MOL       0.0584
     58 H11        17.1572  -18.8680   18.1686 H           1 MOL       0.0701
     59 H12        16.0612  -15.1026   16.5758 H           1 MOL       0.0701
     60 H13        15.0993  -14.4984   18.6838 H           1 MOL       0.0584
     61 H14        19.5554  -14.7496   23.3803 H           1 MOL       0.0779
     62 H15        16.7432  -15.2508   24.3818 H           1 MOL       0.0547
     63 H16        18.0573  -16.3879   24.0885 H           1 MOL       0.0547
     64 H17        15.2015  -15.4483   22.9309 H           1 MOL       0.1881
     65 H18        18.3924  -10.8045   21.5334 H           1 MOL       0.0802
     66 H19        20.3725  -10.6203   20.4054 H           1 MOL       0.0313
     67 H20        19.4505  -11.0770   18.9581 H           1 MOL       0.0313
     68 H21        21.5828  -12.5628   19.8064 H           1 MOL       0.0287
     69 H22        20.1396  -13.3358   19.1001 H           1 MOL       0.0287
     70 H23        20.0903  -14.4538   21.1285 H           1 MOL       0.0524
     71 H24        20.9493  -13.1559   22.0069 H           1 MOL       0.0524
     72 H25        16.3742  -10.3691   20.8723 H           1 MOL       0.1878
     73 H26        14.8391  -12.2191   19.1560 H           1 MOL       0.0683
     74 H27        14.8668  -10.4824   18.9417 H           1 MOL       0.0683
     75 H28        12.9756   -9.4110   19.9534 H           1 MOL       0.0557
     76 H29        11.2606   -9.2791   21.5989 H           1 MOL       0.0599
     77 H30         9.8319   -9.6712   24.8083 H           1 MOL       0.3180
     78 H31        10.7512   -8.9415   23.7116 H           1 MOL       0.3180
     79 H32        10.7080  -12.7409   24.1814 H           1 MOL       0.3180
     80 H33         9.7996  -11.7397   25.0550 H           1 MOL       0.3180
     81 H34        12.7933  -12.7657   23.4588 H           1 MOL       0.0599
     82 H35        14.4974  -12.8942   21.7996 H           1 MOL       0.0557
@<TRIPOS>BOND
     1     1     3   1
     2     1     7   2
     3     1     8   2
     4    14     1  am
     5    12     2   1
     6     3     9  ar
     7     3    10  ar
     8     5     4   1
     9     6     5   1
    10    11     6  ar
    11    12     6  ar
    12     9    11  ar
    13    10    12  ar
    14    13    15   2
    15    25    13   1
    16    13    30  am
    17    25    14   1
    18    16    17   1
    19    29    16   1
    20    17    18  ar
    21    17    22  ar
    22    18    19  ar
    23    19    20  ar
    24    21    20  ar
    25    20    23   1
    26    22    21  ar
    27    23    24   3
    28    26    25   1
    29    27    26   1
    30    27    28   2
    31    27    29  am
    32    30    31   1
    33    30    36   1
    34    31    32   1
    35    31    34   1
    36    32    33   2
    37    32    37  am
    38    34    35   1
    39    35    36   1
    40    37    38   1
    41    38    39   1
    42    39    40  ar
    43    39    47  ar
    44    40    41  ar
    45    41    42  ar
    46    42    43   1
    47    42    46  ar
    48    43    44  ar
    49    43    45  ar
    50    46    47  ar
    51     4    48   1
    52     4    49   1
    53     4    50   1
    54     9    51   1
    55    10    52   1
    56    11    53   1
    57    14    54   1
    58    16    55   1
    59    16    56   1
    60    18    57   1
    61    19    58   1
    62    21    59   1
    63    22    60   1
    64    25    61   1
    65    26    62   1
    66    26    63   1
    67    29    64   1
    68    31    65   1
    69    34    66   1
    70    34    67   1
    71    35    68   1
    72    35    69   1
    73    36    70   1
    74    36    71   1
    75    37    72   1
    76    38    73   1
    77    38    74   1
    78    40    75   1
    79    41    76   1
    80    44    77   1
    81    44    78   1
    82    45    79   1
    83    45    80   1
    84    46    81   1
    85    47    82   1
@<TRIPOS>SUBSTRUCTURE
     1  MOL      2

