@<TRIPOS>MOLECULE
3utu_ligand_078
    82    85
SMALL
GAST_HUCK
****
This file was generated by PARSER (from files_GN.cpp)

@<TRIPOS>ATOM
      1 S8         15.6000  -16.2465   21.9378 S.o2        1 MOL       0.0657
      2 CL         17.0110  -18.1189   17.0663 Cl          1 MOL      -0.0788
      3 C35        15.8039  -17.5867   20.8408 C.ar        1 MOL       0.0977
      4 C10        15.3372  -21.3039   17.5665 C.3         1 MOL       0.0596
      5 O9         16.5046  -20.8374   18.2677 O.3         1 MOL      -0.3203
      6 C5         16.2551  -19.7639   19.0847 C.ar        1 MOL       0.1052
      7 O1         15.2621  -14.9055   21.1554 O.2         1 MOL      -0.1516
      8 O10        14.2966  -16.5245   22.8045 O.2         1 MOL      -0.1516
      9 C7         15.6194  -18.9089   21.2863 C.ar        1 MOL      -0.0438
     10 C3         16.2290  -17.3581   19.5121 C.ar        1 MOL      -0.0300
     11 C6         15.8456  -19.9911   20.4170 C.ar        1 MOL      -0.0306
     12 C4         16.4642  -18.4397   18.6393 C.ar        1 MOL       0.0696
     13 C13        18.0528  -14.0432   22.3205 C.2         1 MOL       0.2048
     14 N11        16.8561  -16.0104   23.0487 N.am        1 MOL      -0.2244
     15 O14        17.0840  -13.4305   22.7716 O.2         1 MOL      -0.3945
     16 C15        21.7527  -18.1297   23.6686 C.3         1 MOL       0.0687
     17 C31        23.0305  -17.5027   23.2266 C.ar        1 MOL      -0.0116
     18 C32        23.5834  -16.3944   23.9086 C.ar        1 MOL      -0.0467
     19 C33        24.7867  -15.8012   23.4752 C.ar        1 MOL      -0.0334
     20 C44        25.4566  -16.3096   22.3366 C.ar        1 MOL       0.0883
     21 C8         24.9049  -17.4003   21.6379 C.ar        1 MOL      -0.0334
     22 C9         23.7144  -18.0041   22.0866 C.ar        1 MOL      -0.0467
     23 C40        26.5725  -15.7701   21.9365 C.1         1 MOL       0.0934
     24 N63        27.5549  -15.2922   21.5728 N.1         1 MOL      -0.3338
     25 C45        18.1563  -15.4629   22.7384 C.3         1 MOL       0.1430
     26 C12        18.9007  -16.4848   21.7938 C.3         1 MOL       0.0742
     27 C46        20.2722  -16.8293   22.1375 C.2         1 MOL       0.1821
     28 O22        21.1629  -16.5554   21.3331 O.2         1 MOL      -0.3967
     29 N14        20.5303  -17.4991   23.2578 N.am        1 MOL      -0.2739
     30 N15        18.9416  -13.2867   21.6347 N.am        1 MOL      -0.2500
     31 C16        18.6621  -11.9564   21.1301 C.3         1 MOL       0.1338
     32 C17        17.4158  -11.8459   20.3695 C.2         1 MOL       0.2037
     33 O18        17.2368  -12.5877   19.4104 O.2         1 MOL      -0.3944
     34 C34        19.8900  -11.5655   20.2709 C.3         1 MOL      -0.0104
     35 C1         21.0157  -12.3966   20.8872 C.3         1 MOL      -0.0281
     36 C2         20.2956  -13.6688   21.3795 C.3         1 MOL       0.0369
     37 N19        16.4733  -10.9965   20.7673 N.am        1 MOL      -0.2737
     38 C20        15.1678  -10.8081   20.2145 C.3         1 MOL       0.0645
     39 C21        14.1666  -10.8205   21.3118 C.ar        1 MOL      -0.0210
     40 C26        13.8871   -9.6441   22.0392 C.ar        1 MOL      -0.0584
     41 C25        12.9297   -9.6483   23.0672 C.ar        1 MOL      -0.0633
     42 C24        12.2151  -10.8264   23.4175 C.ar        1 MOL       0.0188
     43 C27        11.2039  -10.8133   24.3995 C.cat       1 MOL       0.2318
     44 N29        10.7131   -9.7318   24.8703 N.pl3       1 MOL      -0.2729
     45 N28        10.6741  -11.8774   24.8776 N.pl3       1 MOL      -0.2729
     46 C23        12.5337  -12.0076   22.6967 C.ar        1 MOL      -0.0633
     47 C22        13.4863  -12.0049   21.6622 C.ar        1 MOL      -0.0584
     48 H1         15.6315  -22.1533   16.9484 H           1 MOL       0.0578
     49 H2         14.9300  -20.5316   16.9110 H           1 MOL       0.0578
     50 H3         14.5632  -21.6404   18.2596 H           1 MOL       0.0578
     51 H4         15.3348  -19.0973   22.2503 H           1 MOL       0.0610
     52 H5         16.3921  -16.4027   19.1832 H           1 MOL       0.0614
     53 H6         15.7158  -20.9459   20.7534 H           1 MOL       0.0542
     54 H7         16.6712  -16.2461   23.9743 H           1 MOL       0.1706
     55 H8         21.7503  -18.1564   24.7642 H           1 MOL       0.0704
     56 H9         21.7119  -19.1747   23.3395 H           1 MOL       0.0704
     57 H10        23.1168  -16.0146   24.7350 H           1 MOL       0.0584
     58 H11        25.1683  -15.0062   23.9951 H           1 MOL       0.0701
     59 H12        25.3596  -17.7760   20.7968 H           1 MOL       0.0701
     60 H13        23.3359  -18.7962   21.5705 H           1 MOL       0.0584
     61 H14        18.6844  -15.4357   23.6950 H           1 MOL       0.0779
     62 H15        18.8411  -16.1197   20.7610 H           1 MOL       0.0547
     63 H16        18.3886  -17.4543   21.8085 H           1 MOL       0.0547
     64 H17        19.7507  -17.7194   23.8044 H           1 MOL       0.1881
     65 H18        18.6301  -11.2809   21.9991 H           1 MOL       0.0802
     66 H19        20.0994  -10.4944   20.3208 H           1 MOL       0.0313
     67 H20        19.7683  -11.8554   19.2202 H           1 MOL       0.0313
     68 H21        21.4577  -11.8615   21.7349 H           1 MOL       0.0287
     69 H22        21.7977  -12.6197   20.1544 H           1 MOL       0.0287
     70 H23        20.3253  -14.4392   20.5989 H           1 MOL       0.0524
     71 H24        20.7899  -14.0336   22.2882 H           1 MOL       0.0524
     72 H25        16.6982  -10.4209   21.5157 H           1 MOL       0.1878
     73 H26        14.9149  -11.5593   19.4568 H           1 MOL       0.0683
     74 H27        15.1628   -9.8379   19.7153 H           1 MOL       0.0683
     75 H28        14.3725   -8.7711   21.8160 H           1 MOL       0.0557
     76 H29        12.7631   -8.7675   23.5563 H           1 MOL       0.0599
     77 H30        10.0163   -9.7645   25.4942 H           1 MOL       0.3180
     78 H31        11.0130   -8.8955   24.5762 H           1 MOL       0.3180
     79 H32        10.9509  -12.7237   24.5996 H           1 MOL       0.3180
     80 H33         9.9790  -11.8062   25.4971 H           1 MOL       0.3180
     81 H34        12.0592  -12.8910   22.8944 H           1 MOL       0.0599
     82 H35        13.6654  -12.8703   21.1509 H           1 MOL       0.0557
@<TRIPOS>BOND
     1     1     3   1
     2     1     7   2
     3     1     8   2
     4    14     1  am
     5    12     2   1
     6     3     9  ar
     7     3    10  ar
     8     5     4   1
     9     6     5   1
    10    11     6  ar
    11    12     6  ar
    12     9    11  ar
    13    10    12  ar
    14    13    15   2
    15    25    13   1
    16    13    30  am
    17    25    14   1
    18    16    17   1
    19    29    16   1
    20    17    18  ar
    21    17    22  ar
    22    18    19  ar
    23    19    20  ar
    24    21    20  ar
    25    20    23   1
    26    22    21  ar
    27    23    24   3
    28    26    25   1
    29    27    26   1
    30    27    28   2
    31    27    29  am
    32    30    31   1
    33    30    36   1
    34    31    32   1
    35    31    34   1
    36    32    33   2
    37    32    37  am
    38    34    35   1
    39    35    36   1
    40    37    38   1
    41    38    39   1
    42    39    40  ar
    43    39    47  ar
    44    40    41  ar
    45    41    42  ar
    46    42    43   1
    47    42    46  ar
    48    43    44  ar
    49    43    45  ar
    50    46    47  ar
    51     4    48   1
    52     4    49   1
    53     4    50   1
    54     9    51   1
    55    10    52   1
    56    11    53   1
    57    14    54   1
    58    16    55   1
    59    16    56   1
    60    18    57   1
    61    19    58   1
    62    21    59   1
    63    22    60   1
    64    25    61   1
    65    26    62   1
    66    26    63   1
    67    29    64   1
    68    31    65   1
    69    34    66   1
    70    34    67   1
    71    35    68   1
    72    35    69   1
    73    36    70   1
    74    36    71   1
    75    37    72   1
    76    38    73   1
    77    38    74   1
    78    40    75   1
    79    41    76   1
    80    44    77   1
    81    44    78   1
    82    45    79   1
    83    45    80   1
    84    46    81   1
    85    47    82   1
@<TRIPOS>SUBSTRUCTURE
     1  MOL      2

