@<TRIPOS>MOLECULE
3utu_ligand_009
    82    85
SMALL
GAST_HUCK
****
This file was generated by PARSER (from files_GN.cpp)

@<TRIPOS>ATOM
      1 S8         18.4895  -15.7216   26.8648 S.o2        1 MOL       0.0657
      2 CL         18.2558  -18.8074   31.2986 Cl          1 MOL      -0.0788
      3 C35        19.0736  -17.0767   27.7915 C.ar        1 MOL       0.0977
      4 C10        20.0102  -21.4109   30.0995 C.3         1 MOL       0.0596
      5 O9         20.7026  -20.1514   30.1512 O.3         1 MOL      -0.3203
      6 C5         20.1303  -19.1776   29.3769 C.ar        1 MOL       0.1052
      7 O1         16.9207  -15.4664   26.9553 O.2         1 MOL      -0.1516
      8 O10        19.0259  -14.4381   27.6387 O.2         1 MOL      -0.1516
      9 C7         20.2283  -17.7717   27.3765 C.ar        1 MOL      -0.0438
     10 C3         18.4533  -17.4368   29.0053 C.ar        1 MOL      -0.0300
     11 C6         20.7522  -18.8143   28.1632 C.ar        1 MOL      -0.0306
     12 C4         18.9831  -18.4690   29.8070 C.ar        1 MOL       0.0696
     13 C13        18.2429  -14.3366   23.5013 C.2         1 MOL       0.2048
     14 N11        19.1448  -15.4878   25.3252 N.am        1 MOL      -0.2244
     15 O14        17.2705  -13.7496   23.9675 O.2         1 MOL      -0.3945
     16 C15        14.9409  -16.1514   21.0868 C.3         1 MOL       0.0687
     17 C31        14.0693  -17.3483   21.0439 C.ar        1 MOL      -0.0116
     18 C32        14.5993  -18.5992   20.6518 C.ar        1 MOL      -0.0467
     19 C33        13.8030  -19.7552   20.6770 C.ar        1 MOL      -0.0334
     20 C44        12.4565  -19.6806   21.0966 C.ar        1 MOL       0.0883
     21 C8         11.9193  -18.4336   21.4820 C.ar        1 MOL      -0.0334
     22 C9         12.7198  -17.2780   21.4556 C.ar        1 MOL      -0.0467
     23 C40        11.7205  -20.7558   21.1353 C.1         1 MOL       0.0934
     24 N63        11.0720  -21.7056   21.1712 N.1         1 MOL      -0.3338
     25 C45        18.5131  -15.6706   24.0553 C.3         1 MOL       0.1430
     26 C12        17.2715  -16.6227   24.0086 C.3         1 MOL       0.0742
     27 C46        16.7216  -16.7758   22.6756 C.2         1 MOL       0.1821
     28 O22        17.3092  -17.4910   21.8730 O.2         1 MOL      -0.3967
     29 N14        15.6225  -16.1085   22.3394 N.am        1 MOL      -0.2739
     30 N15        18.9630  -13.7311   22.5383 N.am        1 MOL      -0.2500
     31 C16        18.5890  -12.4770   21.9192 C.3         1 MOL       0.1338
     32 C17        17.2773  -12.4619   21.2811 C.2         1 MOL       0.2037
     33 O18        16.8395  -13.4988   20.7959 O.2         1 MOL      -0.3944
     34 C34        19.6881  -12.1882   20.8665 C.3         1 MOL      -0.0104
     35 C1         20.8886  -12.9884   21.3707 C.3         1 MOL      -0.0281
     36 C2         20.2398  -14.1921   22.0720 C.3         1 MOL       0.0369
     37 N19        16.6348  -11.3088   21.1493 N.am        1 MOL      -0.2737
     38 C20        15.3964  -11.0955   20.4734 C.3         1 MOL       0.0645
     39 C21        14.3162  -11.0140   21.4813 C.ar        1 MOL      -0.0210
     40 C26        13.6638  -12.1867   21.9171 C.ar        1 MOL      -0.0584
     41 C25        12.6468  -12.1263   22.8838 C.ar        1 MOL      -0.0633
     42 C24        12.2421  -10.8930   23.4618 C.ar        1 MOL       0.0188
     43 C27        11.1923  -10.8319   24.3993 C.cat       1 MOL       0.2318
     44 N29        10.6208  -11.8680   24.8818 N.pl3       1 MOL      -0.2729
     45 N28        10.7096   -9.7268   24.8317 N.pl3       1 MOL      -0.2729
     46 C23        12.9313   -9.7266   23.0330 C.ar        1 MOL      -0.0633
     47 C22        13.9493   -9.7832   22.0628 C.ar        1 MOL      -0.0584
     48 H1         20.5817  -22.1324   30.6829 H           1 MOL       0.0578
     49 H2         19.9320  -21.7857   29.0758 H           1 MOL       0.0578
     50 H3         19.0128  -21.3332   30.5364 H           1 MOL       0.0578
     51 H4         20.7101  -17.5152   26.5131 H           1 MOL       0.0610
     52 H5         17.6205  -16.9410   29.3277 H           1 MOL       0.0614
     53 H6         21.5986  -19.2999   27.8603 H           1 MOL       0.0542
     54 H7         20.0216  -15.0661   25.3079 H           1 MOL       0.1706
     55 H8         14.3449  -15.2392   21.0128 H           1 MOL       0.0704
     56 H9         15.6362  -16.1380   20.2408 H           1 MOL       0.0704
     57 H10        15.5699  -18.6766   20.3472 H           1 MOL       0.0584
     58 H11        14.2161  -20.6488   20.3916 H           1 MOL       0.0701
     59 H12        10.9471  -18.3531   21.7951 H           1 MOL       0.0701
     60 H13        12.3158  -16.3902   21.7621 H           1 MOL       0.0584
     61 H14        19.2721  -16.1748   23.4575 H           1 MOL       0.0779
     62 H15        16.4967  -16.2436   24.6777 H           1 MOL       0.0547
     63 H16        17.5596  -17.6080   24.3855 H           1 MOL       0.0547
     64 H17        15.2236  -15.5455   23.0244 H           1 MOL       0.1881
     65 H18        18.6357  -11.7036   22.6943 H           1 MOL       0.0802
     66 H19        19.9131  -11.1198   20.7956 H           1 MOL       0.0313
     67 H20        19.4147  -12.5580   19.8718 H           1 MOL       0.0313
     68 H21        21.4587  -12.3931   22.0906 H           1 MOL       0.0287
     69 H22        21.5460  -13.2928   20.5540 H           1 MOL       0.0287
     70 H23        20.1027  -15.0209   21.3692 H           1 MOL       0.0524
     71 H24        20.8904  -14.5126   22.8920 H           1 MOL       0.0524
     72 H25        17.0368  -10.5301   21.5668 H           1 MOL       0.1878
     73 H26        15.1777  -11.8798   19.7431 H           1 MOL       0.0683
     74 H27        15.4765  -10.1621   19.9101 H           1 MOL       0.0683
     75 H28        13.9215  -13.0941   21.5248 H           1 MOL       0.0557
     76 H29        12.1995  -13.0070   23.1469 H           1 MOL       0.0599
     77 H30         9.9107  -11.7690   25.4829 H           1 MOL       0.3180
     78 H31        10.8833  -12.7308   24.6336 H           1 MOL       0.3180
     79 H32        11.0425   -8.9067   24.5374 H           1 MOL       0.3180
     80 H33         9.9976   -9.7356   25.4365 H           1 MOL       0.3180
     81 H34        12.7075   -8.8075   23.4213 H           1 MOL       0.0599
     82 H35        14.4239   -8.9191   21.7869 H           1 MOL       0.0557
@<TRIPOS>BOND
     1     1     3   1
     2     1     7   2
     3     1     8   2
     4    14     1  am
     5    12     2   1
     6     3     9  ar
     7     3    10  ar
     8     5     4   1
     9     6     5   1
    10    11     6  ar
    11    12     6  ar
    12     9    11  ar
    13    10    12  ar
    14    13    15   2
    15    25    13   1
    16    13    30  am
    17    25    14   1
    18    16    17   1
    19    29    16   1
    20    17    18  ar
    21    17    22  ar
    22    18    19  ar
    23    19    20  ar
    24    21    20  ar
    25    20    23   1
    26    22    21  ar
    27    23    24   3
    28    26    25   1
    29    27    26   1
    30    27    28   2
    31    27    29  am
    32    30    31   1
    33    30    36   1
    34    31    32   1
    35    31    34   1
    36    32    33   2
    37    32    37  am
    38    34    35   1
    39    35    36   1
    40    37    38   1
    41    38    39   1
    42    39    40  ar
    43    39    47  ar
    44    40    41  ar
    45    41    42  ar
    46    42    43   1
    47    42    46  ar
    48    43    44  ar
    49    43    45  ar
    50    46    47  ar
    51     4    48   1
    52     4    49   1
    53     4    50   1
    54     9    51   1
    55    10    52   1
    56    11    53   1
    57    14    54   1
    58    16    55   1
    59    16    56   1
    60    18    57   1
    61    19    58   1
    62    21    59   1
    63    22    60   1
    64    25    61   1
    65    26    62   1
    66    26    63   1
    67    29    64   1
    68    31    65   1
    69    34    66   1
    70    34    67   1
    71    35    68   1
    72    35    69   1
    73    36    70   1
    74    36    71   1
    75    37    72   1
    76    38    73   1
    77    38    74   1
    78    40    75   1
    79    41    76   1
    80    44    77   1
    81    44    78   1
    82    45    79   1
    83    45    80   1
    84    46    81   1
    85    47    82   1
@<TRIPOS>SUBSTRUCTURE
     1  MOL      2

