@<TRIPOS>MOLECULE
3utu_ligand_012
    82    85
SMALL
GAST_HUCK
****
This file was generated by PARSER (from files_GN.cpp)

@<TRIPOS>ATOM
      1 S8         17.5757  -16.4645   25.3379 S.o2        1 MOL       0.0657
      2 CL         15.2310  -20.0196   28.6849 Cl          1 MOL      -0.0788
      3 C35        16.3186  -17.6246   25.6761 C.ar        1 MOL       0.0977
      4 C10        11.9509  -19.8938   26.5909 C.3         1 MOL       0.0596
      5 O9         13.2769  -20.4388   26.4447 O.3         1 MOL      -0.3203
      6 C5         14.2621  -19.5089   26.2094 C.ar        1 MOL       0.1052
      7 O1         17.8002  -15.5146   26.5944 O.2         1 MOL      -0.1516
      8 O10        18.9176  -17.2960   25.1366 O.2         1 MOL      -0.1516
      9 C7         15.3188  -17.8838   24.7171 C.ar        1 MOL      -0.0438
     10 C3         16.2839  -18.3188   26.9029 C.ar        1 MOL      -0.0300
     11 C6         14.3238  -18.8442   24.9671 C.ar        1 MOL      -0.0306
     12 C4         15.2592  -19.2483   27.1756 C.ar        1 MOL       0.0696
     13 C13        18.0089  -13.9009   22.3476 C.2         1 MOL       0.2048
     14 N11        17.2518  -15.5243   23.9682 N.am        1 MOL      -0.2244
     15 O14        17.0528  -13.2513   22.7582 O.2         1 MOL      -0.3945
     16 C15        15.1995  -15.4080   19.4538 C.3         1 MOL       0.0687
     17 C31        15.3839  -15.6399   17.9955 C.ar        1 MOL      -0.0116
     18 C32        14.5851  -16.5708   17.2932 C.ar        1 MOL      -0.0467
     19 C33        14.7557  -16.7676   15.9120 C.ar        1 MOL      -0.0334
     20 C44        15.7310  -16.0354   15.2027 C.ar        1 MOL       0.0883
     21 C8         16.5266  -15.0972   15.8944 C.ar        1 MOL      -0.0334
     22 C9         16.3521  -14.9021   17.2760 C.ar        1 MOL      -0.0467
     23 C40        15.9094  -16.2187   13.9244 C.1         1 MOL       0.0934
     24 N63        16.0758  -16.3784   12.8013 N.1         1 MOL      -0.3338
     25 C45        18.1559  -15.2727   22.8778 C.3         1 MOL       0.1430
     26 C12        17.9768  -16.4033   21.8135 C.3         1 MOL       0.0742
     27 C46        16.6902  -16.4415   21.1348 C.2         1 MOL       0.1821
     28 O22        15.9000  -17.3344   21.4044 O.2         1 MOL      -0.3967
     29 N14        16.4275  -15.5628   20.1786 N.am        1 MOL      -0.2739
     30 N15        18.8586  -13.2888   21.4951 N.am        1 MOL      -0.2500
     31 C16        18.6579  -11.9418   21.0102 C.3         1 MOL       0.1338
     32 C17        17.3716  -11.7276   20.3440 C.2         1 MOL       0.2037
     33 O18        17.0801  -12.4207   19.3823 O.2         1 MOL      -0.3944
     34 C34        19.8589  -11.6431   20.0720 C.3         1 MOL      -0.0104
     35 C1         20.9354  -12.6238   20.5398 C.3         1 MOL      -0.0281
     36 C2         20.1224  -13.8254   21.0589 C.3         1 MOL       0.0369
     37 N19        16.5084  -10.8466   20.8338 N.am        1 MOL      -0.2737
     38 C20        15.2272  -10.4968   20.3134 C.3         1 MOL       0.0645
     39 C21        14.2122  -10.5808   21.3906 C.ar        1 MOL      -0.0210
     40 C26        13.6076  -11.8093   21.7286 C.ar        1 MOL      -0.0584
     41 C25        12.6267  -11.8728   22.7359 C.ar        1 MOL      -0.0633
     42 C24        12.2182  -10.7169   23.4541 C.ar        1 MOL       0.0188
     43 C27        11.1975  -10.7685   24.4274 C.cat       1 MOL       0.2318
     44 N29        10.6484  -11.8606   24.8099 N.pl3       1 MOL      -0.2729
     45 N28        10.7168   -9.7261   24.9807 N.pl3       1 MOL      -0.2729
     46 C23        12.8668   -9.4954   23.1244 C.ar        1 MOL      -0.0633
     47 C22        13.8397   -9.4273   22.1112 C.ar        1 MOL      -0.0584
     48 H1         11.2748  -20.7059   26.8543 H           1 MOL       0.0578
     49 H2         11.5939  -19.4513   25.6585 H           1 MOL       0.0578
     50 H3         11.9107  -19.1447   27.3848 H           1 MOL       0.0578
     51 H4         15.2938  -17.3773   23.8372 H           1 MOL       0.0610
     52 H5         16.9965  -18.1325   27.6132 H           1 MOL       0.0614
     53 H6         13.6264  -19.0410   24.2481 H           1 MOL       0.0542
     54 H7         16.3257  -15.2438   23.8553 H           1 MOL       0.1706
     55 H8         14.4194  -16.0562   19.8605 H           1 MOL       0.0704
     56 H9         14.8623  -14.3785   19.5995 H           1 MOL       0.0704
     57 H10        13.8685  -17.1111   17.7827 H           1 MOL       0.0584
     58 H11        14.1620  -17.4530   15.4278 H           1 MOL       0.0701
     59 H12        17.2383  -14.5456   15.4022 H           1 MOL       0.0701
     60 H13        16.9454  -14.2270   17.7506 H           1 MOL       0.0584
     61 H14        19.1671  -15.3372   23.2787 H           1 MOL       0.0779
     62 H15        18.1451  -17.3612   22.3258 H           1 MOL       0.0547
     63 H16        18.7580  -16.3482   21.0563 H           1 MOL       0.0547
     64 H17        17.1415  -14.9484   19.9400 H           1 MOL       0.1881
     65 H18        18.7443  -11.2723   21.8725 H           1 MOL       0.0802
     66 H19        20.1957  -10.6051   20.1609 H           1 MOL       0.0313
     67 H20        19.6249  -11.8472   19.0217 H           1 MOL       0.0313
     68 H21        21.5237  -12.1804   21.3525 H           1 MOL       0.0287
     69 H22        21.6071  -12.9058   19.7279 H           1 MOL       0.0287
     70 H23        19.9738  -14.5330   20.2435 H           1 MOL       0.0524
     71 H24        20.6824  -14.3025   21.8619 H           1 MOL       0.0524
     72 H25        16.7951  -10.3468   21.6131 H           1 MOL       0.1878
     73 H26        14.9186  -11.1141   19.4637 H           1 MOL       0.0683
     74 H27        15.3121   -9.4718   19.9481 H           1 MOL       0.0683
     75 H28        13.8641  -12.6659   21.2315 H           1 MOL       0.0557
     76 H29        12.1999  -12.7842   22.9195 H           1 MOL       0.0599
     77 H30         9.9505  -11.8287   25.4351 H           1 MOL       0.3180
     78 H31        10.9121  -12.6889   24.4722 H           1 MOL       0.3180
     79 H32        11.0324   -8.8734   24.7674 H           1 MOL       0.3180
     80 H33        10.0121   -9.8014   25.5930 H           1 MOL       0.3180
     81 H34        12.6390   -8.6246   23.6062 H           1 MOL       0.0599
     82 H35        14.2745   -8.5241   21.9049 H           1 MOL       0.0557
@<TRIPOS>BOND
     1     1     3   1
     2     1     7   2
     3     1     8   2
     4    14     1  am
     5    12     2   1
     6     3     9  ar
     7     3    10  ar
     8     5     4   1
     9     6     5   1
    10    11     6  ar
    11    12     6  ar
    12     9    11  ar
    13    10    12  ar
    14    13    15   2
    15    25    13   1
    16    13    30  am
    17    25    14   1
    18    16    17   1
    19    29    16   1
    20    17    18  ar
    21    17    22  ar
    22    18    19  ar
    23    19    20  ar
    24    21    20  ar
    25    20    23   1
    26    22    21  ar
    27    23    24   3
    28    26    25   1
    29    27    26   1
    30    27    28   2
    31    27    29  am
    32    30    31   1
    33    30    36   1
    34    31    32   1
    35    31    34   1
    36    32    33   2
    37    32    37  am
    38    34    35   1
    39    35    36   1
    40    37    38   1
    41    38    39   1
    42    39    40  ar
    43    39    47  ar
    44    40    41  ar
    45    41    42  ar
    46    42    43   1
    47    42    46  ar
    48    43    44  ar
    49    43    45  ar
    50    46    47  ar
    51     4    48   1
    52     4    49   1
    53     4    50   1
    54     9    51   1
    55    10    52   1
    56    11    53   1
    57    14    54   1
    58    16    55   1
    59    16    56   1
    60    18    57   1
    61    19    58   1
    62    21    59   1
    63    22    60   1
    64    25    61   1
    65    26    62   1
    66    26    63   1
    67    29    64   1
    68    31    65   1
    69    34    66   1
    70    34    67   1
    71    35    68   1
    72    35    69   1
    73    36    70   1
    74    36    71   1
    75    37    72   1
    76    38    73   1
    77    38    74   1
    78    40    75   1
    79    41    76   1
    80    44    77   1
    81    44    78   1
    82    45    79   1
    83    45    80   1
    84    46    81   1
    85    47    82   1
@<TRIPOS>SUBSTRUCTURE
     1  MOL      2

