@<TRIPOS>MOLECULE
3utu_ligand_028
    82    85
SMALL
GAST_HUCK
****
This file was generated by PARSER (from files_GN.cpp)

@<TRIPOS>ATOM
      1 S8         17.0516  -17.3863   24.0576 S.o2        1 MOL       0.0657
      2 CL         12.4539  -20.1372   23.4191 Cl          1 MOL      -0.0788
      3 C35        15.6776  -18.1973   24.7627 C.ar        1 MOL       0.0977
      4 C10        11.6227  -19.9462   27.1584 C.3         1 MOL       0.0596
      5 O9         12.6298  -20.6077   26.3742 O.3         1 MOL      -0.3203
      6 C5         13.5807  -19.7667   25.8533 C.ar        1 MOL       0.1052
      7 O1         17.8663  -16.7106   25.2478 O.2         1 MOL      -0.1516
      8 O10        17.9989  -18.5252   23.4780 O.2         1 MOL      -0.1516
      9 C7         15.6325  -18.4698   26.1477 C.ar        1 MOL      -0.0438
     10 C3         14.6682  -18.7191   23.9280 C.ar        1 MOL      -0.0300
     11 C6         14.5975  -19.2563   26.6861 C.ar        1 MOL      -0.0306
     12 C4         13.6215  -19.4945   24.4670 C.ar        1 MOL       0.0696
     13 C13        16.9931  -13.9612   22.1736 C.2         1 MOL       0.2048
     14 N11        16.7612  -16.2190   22.8630 N.am        1 MOL      -0.2244
     15 O14        16.6606  -13.3016   23.1561 O.2         1 MOL      -0.3945
     16 C15        21.5906  -13.2887   22.3988 C.3         1 MOL       0.0687
     17 C31        22.5525  -14.0359   23.2607 C.ar        1 MOL      -0.0116
     18 C32        23.8332  -13.4721   23.4657 C.ar        1 MOL      -0.0467
     19 C33        24.7817  -14.1024   24.2934 C.ar        1 MOL      -0.0334
     20 C44        24.4698  -15.3206   24.9352 C.ar        1 MOL       0.0883
     21 C8         23.1948  -15.8921   24.7418 C.ar        1 MOL      -0.0334
     22 C9         22.2456  -15.2528   23.9206 C.ar        1 MOL      -0.0467
     23 C40        25.3524  -15.9003   25.6940 C.1         1 MOL       0.0934
     24 N63        26.1349  -16.4083   26.3642 N.1         1 MOL      -0.3338
     25 C45        17.7193  -15.1939   22.5484 C.3         1 MOL       0.1430
     26 C12        18.8474  -15.7466   21.6198 C.3         1 MOL       0.0742
     27 C46        20.0468  -14.9462   21.4360 C.2         1 MOL       0.1821
     28 O22        20.8933  -15.3927   20.6734 O.2         1 MOL      -0.3967
     29 N14        20.3110  -13.9005   22.2104 N.am        1 MOL      -0.2739
     30 N15        16.5838  -13.5063   20.9641 N.am        1 MOL      -0.2500
     31 C16        15.7619  -12.3169   20.7953 C.3         1 MOL       0.1338
     32 C17        14.5541  -12.2465   21.6190 C.2         1 MOL       0.2037
     33 O18        14.5055  -11.3735   22.4780 O.2         1 MOL      -0.3944
     34 C34        15.4109  -12.2507   19.2890 C.3         1 MOL      -0.0104
     35 C1         16.5782  -12.9773   18.6286 C.3         1 MOL      -0.0281
     36 C2         17.0050  -14.0149   19.6848 C.3         1 MOL       0.0369
     37 N19        13.5522  -13.1065   21.4492 N.am        1 MOL      -0.2737
     38 C20        12.3055  -13.2049   22.1523 C.3         1 MOL       0.0645
     39 C21        11.7557  -11.9440   22.7094 C.ar        1 MOL      -0.0210
     40 C26        11.4731  -11.8116   24.0863 C.ar        1 MOL      -0.0584
     41 C25        11.1950  -10.5561   24.6427 C.ar        1 MOL      -0.0633
     42 C24        11.2452   -9.3889   23.8443 C.ar        1 MOL       0.0188
     43 C27        11.2114   -8.1278   24.4297 C.cat       1 MOL       0.2318
     44 N29        10.3755   -7.8348   25.3508 N.pl3       1 MOL      -0.2729
     45 N28        12.0606   -7.2290   24.0986 N.pl3       1 MOL      -0.2729
     46 C23        11.4133   -9.5367   22.4465 C.ar        1 MOL      -0.0633
     47 C22        11.6312  -10.8048   21.8829 C.ar        1 MOL      -0.0584
     48 H1         10.8739  -20.6919   27.4394 H           1 MOL       0.0578
     49 H2         11.1266  -19.1599   26.5895 H           1 MOL       0.0578
     50 H3         12.0446  -19.5280   28.0749 H           1 MOL       0.0578
     51 H4         16.3653  -18.1341   26.7749 H           1 MOL       0.0610
     52 H5         14.7119  -18.5619   22.9182 H           1 MOL       0.0614
     53 H6         14.5988  -19.4743   27.6857 H           1 MOL       0.0542
     54 H7         16.0579  -16.3970   22.2173 H           1 MOL       0.1706
     55 H8         22.0341  -13.0877   21.4202 H           1 MOL       0.0704
     56 H9         21.4047  -12.3293   22.8772 H           1 MOL       0.0704
     57 H10        24.0879  -12.5901   23.0150 H           1 MOL       0.0584
     58 H11        25.7018  -13.6607   24.4198 H           1 MOL       0.0701
     59 H12        22.9433  -16.7748   25.1998 H           1 MOL       0.0701
     60 H13        21.3275  -15.6856   23.8198 H           1 MOL       0.0584
     61 H14        18.2443  -14.9675   23.4871 H           1 MOL       0.0779
     62 H15        18.4228  -16.0261   20.6553 H           1 MOL       0.0547
     63 H16        19.2063  -16.6783   22.0659 H           1 MOL       0.0547
     64 H17        19.5968  -13.5762   22.7884 H           1 MOL       0.1881
     65 H18        16.4139  -11.4615   21.0228 H           1 MOL       0.0802
     66 H19        15.3172  -11.2206   18.9405 H           1 MOL       0.0313
     67 H20        14.4866  -12.7878   19.0445 H           1 MOL       0.0313
     68 H21        17.3861  -12.2668   18.4456 H           1 MOL       0.0287
     69 H22        16.2884  -13.4462   17.6859 H           1 MOL       0.0287
     70 H23        16.5317  -14.9848   19.4956 H           1 MOL       0.0524
     71 H24        18.0884  -14.1134   19.6159 H           1 MOL       0.0524
     72 H25        13.6535  -13.7428   20.7224 H           1 MOL       0.1878
     73 H26        12.4502  -13.9605   22.9342 H           1 MOL       0.0683
     74 H27        11.5759  -13.6077   21.4508 H           1 MOL       0.0683
     75 H28        11.5173  -12.6278   24.7014 H           1 MOL       0.0557
     76 H29        11.0414  -10.4904   25.6533 H           1 MOL       0.0599
     77 H30        10.3963   -6.9926   25.7560 H           1 MOL       0.3180
     78 H31         9.7327   -8.4608   25.6185 H           1 MOL       0.3180
     79 H32        12.7196   -7.4127   23.4572 H           1 MOL       0.3180
     80 H33        12.0436   -6.3865   24.5104 H           1 MOL       0.3180
     81 H34        11.4074   -8.7189   21.8291 H           1 MOL       0.0599
     82 H35        11.7968  -10.8781   20.8740 H           1 MOL       0.0557
@<TRIPOS>BOND
     1     1     3   1
     2     1     7   2
     3     1     8   2
     4    14     1  am
     5    12     2   1
     6     3     9  ar
     7     3    10  ar
     8     5     4   1
     9     6     5   1
    10    11     6  ar
    11    12     6  ar
    12     9    11  ar
    13    10    12  ar
    14    13    15   2
    15    25    13   1
    16    13    30  am
    17    25    14   1
    18    16    17   1
    19    29    16   1
    20    17    18  ar
    21    17    22  ar
    22    18    19  ar
    23    19    20  ar
    24    21    20  ar
    25    20    23   1
    26    22    21  ar
    27    23    24   3
    28    26    25   1
    29    27    26   1
    30    27    28   2
    31    27    29  am
    32    30    31   1
    33    30    36   1
    34    31    32   1
    35    31    34   1
    36    32    33   2
    37    32    37  am
    38    34    35   1
    39    35    36   1
    40    37    38   1
    41    38    39   1
    42    39    40  ar
    43    39    47  ar
    44    40    41  ar
    45    41    42  ar
    46    42    43   1
    47    42    46  ar
    48    43    44  ar
    49    43    45  ar
    50    46    47  ar
    51     4    48   1
    52     4    49   1
    53     4    50   1
    54     9    51   1
    55    10    52   1
    56    11    53   1
    57    14    54   1
    58    16    55   1
    59    16    56   1
    60    18    57   1
    61    19    58   1
    62    21    59   1
    63    22    60   1
    64    25    61   1
    65    26    62   1
    66    26    63   1
    67    29    64   1
    68    31    65   1
    69    34    66   1
    70    34    67   1
    71    35    68   1
    72    35    69   1
    73    36    70   1
    74    36    71   1
    75    37    72   1
    76    38    73   1
    77    38    74   1
    78    40    75   1
    79    41    76   1
    80    44    77   1
    81    44    78   1
    82    45    79   1
    83    45    80   1
    84    46    81   1
    85    47    82   1
@<TRIPOS>SUBSTRUCTURE
     1  MOL      2

