@<TRIPOS>MOLECULE
3utu_ligand_030
    82    85
SMALL
GAST_HUCK
****
This file was generated by PARSER (from files_GN.cpp)

@<TRIPOS>ATOM
      1 S8         16.9957  -16.4584   21.9677 S.o2        1 MOL       0.0657
      2 CL         14.1483  -20.6412   20.0664 Cl          1 MOL      -0.0788
      3 C35        15.4563  -17.1884   21.6060 C.ar        1 MOL       0.0977
      4 C10        10.9519  -18.3281   19.7054 C.3         1 MOL       0.0596
      5 O9         11.7619  -18.9888   20.6993 O.3         1 MOL      -0.3203
      6 C5         12.9597  -18.3801   20.9688 C.ar        1 MOL       0.1052
      7 O1         17.9443  -17.5634   22.6165 O.2         1 MOL      -0.1516
      8 O10        17.5757  -16.0255   20.5459 O.2         1 MOL      -0.1516
      9 C7         14.2489  -16.5011   21.8499 C.ar        1 MOL      -0.0438
     10 C3         15.4008  -18.4843   21.0395 C.ar        1 MOL      -0.0300
     11 C6         13.0108  -17.0930   21.5447 C.ar        1 MOL      -0.0306
     12 C4         14.1584  -19.0868   20.7303 C.ar        1 MOL       0.0696
     13 C13        19.0756  -14.1666   22.4393 C.2         1 MOL       0.2048
     14 N11        16.8666  -15.1139   22.9926 N.am        1 MOL      -0.2244
     15 O14        19.7847  -15.1500   22.6278 O.2         1 MOL      -0.3945
     16 C15        18.9765  -17.6291   25.7158 C.3         1 MOL       0.0687
     17 C31        18.6364  -18.0160   27.1080 C.ar        1 MOL      -0.0116
     18 C32        19.6284  -18.0736   28.1145 C.ar        1 MOL      -0.0467
     19 C33        19.3010  -18.4413   29.4337 C.ar        1 MOL      -0.0334
     20 C44        17.9714  -18.7797   29.7650 C.ar        1 MOL       0.0883
     21 C8         16.9762  -18.7353   28.7646 C.ar        1 MOL      -0.0334
     22 C9         17.3073  -18.3535   27.4503 C.ar        1 MOL      -0.0467
     23 C40        17.6676  -19.1291   30.9801 C.1         1 MOL       0.0934
     24 N63        17.3993  -19.4353   32.0533 N.1         1 MOL      -0.3338
     25 C45        17.8530  -14.1097   23.2662 C.3         1 MOL       0.1430
     26 C12        18.1329  -14.0554   24.8029 C.3         1 MOL       0.0742
     27 C46        18.8633  -15.1920   25.3560 C.2         1 MOL       0.1821
     28 O22        19.9789  -15.0003   25.8269 O.2         1 MOL      -0.3967
     29 N14        18.3296  -16.4079   25.3393 N.am        1 MOL      -0.2739
     30 N15        19.4567  -13.2747   21.5047 N.am        1 MOL      -0.2500
     31 C16        18.7887  -12.0408   21.1757 C.3         1 MOL       0.1338
     32 C17        17.4989  -12.2317   20.5138 C.2         1 MOL       0.2037
     33 O18        17.3846  -13.1257   19.6837 O.2         1 MOL      -0.3944
     34 C34        19.7813  -11.2746   20.2609 C.3         1 MOL      -0.0104
     35 C1         20.6420  -12.3721   19.6334 C.3         1 MOL      -0.0281
     36 C2         20.6518  -13.4632   20.7178 C.3         1 MOL       0.0369
     37 N19        16.5170  -11.3698   20.7374 N.am        1 MOL      -0.2737
     38 C20        15.2075  -11.3924   20.1595 C.3         1 MOL       0.0645
     39 C21        14.1791  -11.3023   21.2266 C.ar        1 MOL      -0.0210
     40 C26        13.3242  -12.3875   21.5195 C.ar        1 MOL      -0.0584
     41 C25        12.3286  -12.2757   22.5072 C.ar        1 MOL      -0.0633
     42 C24        12.1388  -11.0709   23.2356 C.ar        1 MOL       0.0188
     43 C27        11.1052  -10.9428   24.1825 C.cat       1 MOL       0.2318
     44 N29        10.5969  -11.9446   24.7883 N.pl3       1 MOL      -0.2729
     45 N28        10.5950   -9.8126   24.4931 N.pl3       1 MOL      -0.2729
     46 C23        13.0179   -9.9936   22.9459 C.ar        1 MOL      -0.0633
     47 C22        14.0201  -10.1084   21.9654 C.ar        1 MOL      -0.0584
     48 H1         10.1403  -19.0003   19.4215 H           1 MOL       0.0578
     49 H2         11.5215  -18.0933   18.7989 H           1 MOL       0.0578
     50 H3         10.5199  -17.4069   20.1171 H           1 MOL       0.0578
     51 H4         14.2595  -15.5585   22.2459 H           1 MOL       0.0610
     52 H5         16.2659  -18.9891   20.8414 H           1 MOL       0.0614
     53 H6         12.1424  -16.5794   21.7337 H           1 MOL       0.0542
     54 H7         16.0173  -15.0189   23.4649 H           1 MOL       0.1706
     55 H8         18.6368  -18.4142   25.0401 H           1 MOL       0.0704
     56 H9         20.0593  -17.5551   25.5818 H           1 MOL       0.0704
     57 H10        20.6029  -17.8480   27.8930 H           1 MOL       0.0584
     58 H11        20.0423  -18.4596   30.1417 H           1 MOL       0.0701
     59 H12        16.0021  -18.9754   28.9813 H           1 MOL       0.0701
     60 H13        16.5696  -18.3318   26.7401 H           1 MOL       0.0584
     61 H14        17.3251  -13.1858   23.0551 H           1 MOL       0.0779
     62 H15        17.1824  -13.9727   25.3363 H           1 MOL       0.0547
     63 H16        18.6771  -13.1322   25.0103 H           1 MOL       0.0547
     64 H17        17.4201  -16.4852   25.0052 H           1 MOL       0.1881
     65 H18        18.6543  -11.4494   22.0927 H           1 MOL       0.0802
     66 H19        20.4178  -10.6168   20.8629 H           1 MOL       0.0313
     67 H20        19.2882  -10.6689   19.4970 H           1 MOL       0.0313
     68 H21        21.6520  -12.0230   19.4022 H           1 MOL       0.0287
     69 H22        20.1675  -12.7459   18.7224 H           1 MOL       0.0287
     70 H23        20.6679  -14.4480   20.2432 H           1 MOL       0.0524
     71 H24        21.5347  -13.3539   21.3560 H           1 MOL       0.0524
     72 H25        16.7101  -10.6294   21.3463 H           1 MOL       0.1878
     73 H26        15.0468  -12.2805   19.5476 H           1 MOL       0.0683
     74 H27        15.1145  -10.5315   19.4993 H           1 MOL       0.0683
     75 H28        13.4134  -13.2672   21.0048 H           1 MOL       0.0557
     76 H29        11.7217  -13.0838   22.6623 H           1 MOL       0.0599
     77 H30         9.8952  -11.8151   25.3947 H           1 MOL       0.3180
     78 H31        10.9016  -12.8141   24.6280 H           1 MOL       0.3180
     79 H32        10.8883   -9.0247   24.0858 H           1 MOL       0.3180
     80 H33         9.8988   -9.7698   25.1176 H           1 MOL       0.3180
     81 H34        12.9492   -9.1104   23.4521 H           1 MOL       0.0599
     82 H35        14.6312   -9.3072   21.7839 H           1 MOL       0.0557
@<TRIPOS>BOND
     1     1     3   1
     2     1     7   2
     3     1     8   2
     4    14     1  am
     5    12     2   1
     6     3     9  ar
     7     3    10  ar
     8     5     4   1
     9     6     5   1
    10    11     6  ar
    11    12     6  ar
    12     9    11  ar
    13    10    12  ar
    14    13    15   2
    15    25    13   1
    16    13    30  am
    17    25    14   1
    18    16    17   1
    19    29    16   1
    20    17    18  ar
    21    17    22  ar
    22    18    19  ar
    23    19    20  ar
    24    21    20  ar
    25    20    23   1
    26    22    21  ar
    27    23    24   3
    28    26    25   1
    29    27    26   1
    30    27    28   2
    31    27    29  am
    32    30    31   1
    33    30    36   1
    34    31    32   1
    35    31    34   1
    36    32    33   2
    37    32    37  am
    38    34    35   1
    39    35    36   1
    40    37    38   1
    41    38    39   1
    42    39    40  ar
    43    39    47  ar
    44    40    41  ar
    45    41    42  ar
    46    42    43   1
    47    42    46  ar
    48    43    44  ar
    49    43    45  ar
    50    46    47  ar
    51     4    48   1
    52     4    49   1
    53     4    50   1
    54     9    51   1
    55    10    52   1
    56    11    53   1
    57    14    54   1
    58    16    55   1
    59    16    56   1
    60    18    57   1
    61    19    58   1
    62    21    59   1
    63    22    60   1
    64    25    61   1
    65    26    62   1
    66    26    63   1
    67    29    64   1
    68    31    65   1
    69    34    66   1
    70    34    67   1
    71    35    68   1
    72    35    69   1
    73    36    70   1
    74    36    71   1
    75    37    72   1
    76    38    73   1
    77    38    74   1
    78    40    75   1
    79    41    76   1
    80    44    77   1
    81    44    78   1
    82    45    79   1
    83    45    80   1
    84    46    81   1
    85    47    82   1
@<TRIPOS>SUBSTRUCTURE
     1  MOL      2

