@<TRIPOS>MOLECULE
3utu_ligand_077
    82    85
SMALL
GAST_HUCK
****
This file was generated by PARSER (from files_GN.cpp)

@<TRIPOS>ATOM
      1 S8         14.4436  -11.7743   13.0807 S.o2        1 MOL       0.0657
      2 CL         13.7229  -16.6583   15.2928 Cl          1 MOL      -0.0788
      3 C35        13.3997  -13.0987   13.5134 C.ar        1 MOL       0.0977
      4 C10        11.1508  -17.5168   13.3769 C.3         1 MOL       0.0596
      5 O9         10.8850  -16.3799   14.2251 O.3         1 MOL      -0.3203
      6 C5         11.7314  -15.3278   14.0100 C.ar        1 MOL       0.1052
      7 O1         14.6375  -11.8847   11.5035 O.2         1 MOL      -0.1516
      8 O10        13.7413  -10.3543   13.2299 O.2         1 MOL      -0.1516
      9 C7         12.0410  -13.0687   13.1394 C.ar        1 MOL      -0.0438
     10 C3         13.9041  -14.2308   14.1888 C.ar        1 MOL      -0.0300
     11 C6         11.2161  -14.1786   13.3800 C.ar        1 MOL      -0.0306
     12 C4         13.0744  -15.3372   14.4543 C.ar        1 MOL       0.0696
     13 C13        15.6116  -11.4761   16.0436 C.2         1 MOL       0.2048
     14 N11        16.0114  -11.8160   13.7016 N.am        1 MOL      -0.2244
     15 O14        14.5804  -10.8172   16.1245 O.2         1 MOL      -0.3945
     16 C15        18.0519   -9.3482   11.1833 C.3         1 MOL       0.0687
     17 C31        17.8539  -10.4448   10.2031 C.ar        1 MOL      -0.0116
     18 C32        18.9407  -11.2161    9.7306 C.ar        1 MOL      -0.0467
     19 C33        18.7362  -12.2590    8.8085 C.ar        1 MOL      -0.0334
     20 C44        17.4347  -12.5595    8.3496 C.ar        1 MOL       0.0883
     21 C8         16.3466  -11.7831    8.8020 C.ar        1 MOL      -0.0334
     22 C9         16.5586  -10.7303    9.7116 C.ar        1 MOL      -0.0467
     23 C40        17.2393  -13.5400    7.5130 C.1         1 MOL       0.0934
     24 N63        17.0668  -14.4072    6.7809 N.1         1 MOL      -0.3338
     25 C45        16.4669  -11.1582   14.8921 C.3         1 MOL       0.1430
     26 C12        16.6802   -9.6200   14.6943 C.3         1 MOL       0.0742
     27 C46        17.5974   -9.2851   13.6144 C.2         1 MOL       0.1821
     28 O22        18.6268   -8.6746   13.8761 O.2         1 MOL      -0.3967
     29 N14        17.2839   -9.5997   12.3653 N.am        1 MOL      -0.2739
     30 N15        15.8104  -12.4710   16.9287 N.am        1 MOL      -0.2500
     31 C16        14.8295  -12.8378   17.9170 C.3         1 MOL       0.1338
     32 C17        14.6757  -11.8041   18.9360 C.2         1 MOL       0.2037
     33 O18        13.5764  -11.2830   19.0939 O.2         1 MOL      -0.3944
     34 C34        15.2832  -14.2115   18.4722 C.3         1 MOL      -0.0104
     35 C1         16.7810  -14.2725   18.1630 C.3         1 MOL      -0.0281
     36 C2         16.9544  -13.3317   16.9540 C.3         1 MOL       0.0369
     37 N19        15.7197  -11.4392   19.6638 N.am        1 MOL      -0.2737
     38 C20        15.7396  -10.4593   20.7009 C.3         1 MOL       0.0645
     39 C21        14.6024  -10.5364   21.6575 C.ar        1 MOL      -0.0210
     40 C26        14.0760  -11.7783   22.0707 C.ar        1 MOL      -0.0584
     41 C25        12.9488  -11.8355   22.9097 C.ar        1 MOL      -0.0633
     42 C24        12.3333  -10.6595   23.4222 C.ar        1 MOL       0.0188
     43 C27        11.1973  -10.7203   24.2517 C.cat       1 MOL       0.2318
     44 N29        10.5683  -11.8039   24.5137 N.pl3       1 MOL      -0.2729
     45 N28        10.6966   -9.6878   24.8125 N.pl3       1 MOL      -0.2729
     46 C23        12.9050   -9.4201   23.0302 C.ar        1 MOL      -0.0633
     47 C22        14.0072   -9.3595   22.1574 C.ar        1 MOL      -0.0584
     48 H1         10.3993  -18.2791   13.5860 H           1 MOL       0.0578
     49 H2         12.1397  -17.9427   13.5761 H           1 MOL       0.0578
     50 H3         11.0721  -17.2570   12.3157 H           1 MOL       0.0578
     51 H4         11.6505  -12.2462   12.6728 H           1 MOL       0.0610
     52 H5         14.8826  -14.2564   14.4756 H           1 MOL       0.0614
     53 H6         10.2385  -14.1509   13.0836 H           1 MOL       0.0542
     54 H7         16.6992  -12.1520   13.1059 H           1 MOL       0.1706
     55 H8         17.6974   -8.4132   10.7416 H           1 MOL       0.0704
     56 H9         19.1107   -9.2147   11.4190 H           1 MOL       0.0704
     57 H10        19.8913  -11.0217   10.0521 H           1 MOL       0.0584
     58 H11        19.5428  -12.8044    8.4873 H           1 MOL       0.0701
     59 H12        15.3937  -11.9743    8.4769 H           1 MOL       0.0701
     60 H13        15.7519  -10.1789   10.0249 H           1 MOL       0.0584
     61 H14        17.4639  -11.5671   15.0731 H           1 MOL       0.0779
     62 H15        17.0645   -9.2094   15.6337 H           1 MOL       0.0547
     63 H16        15.7288   -9.1226   14.4977 H           1 MOL       0.0547
     64 H17        16.4131  -10.0061   12.2316 H           1 MOL       0.1881
     65 H18        13.8746  -13.0053   17.4046 H           1 MOL       0.0802
     66 H19        14.7731  -15.0184   17.9349 H           1 MOL       0.0313
     67 H20        15.0844  -14.3344   19.5419 H           1 MOL       0.0313
     68 H21        17.0885  -15.2923   17.9327 H           1 MOL       0.0287
     69 H22        17.3570  -13.9127   19.0183 H           1 MOL       0.0287
     70 H23        17.8764  -12.7533   17.0755 H           1 MOL       0.0524
     71 H24        17.0131  -13.9156   16.0301 H           1 MOL       0.0524
     72 H25        16.5551  -11.8992   19.4980 H           1 MOL       0.1878
     73 H26        15.7864   -9.4744   20.2296 H           1 MOL       0.0683
     74 H27        16.6686  -10.6017   21.2560 H           1 MOL       0.0683
     75 H28        14.4977  -12.6506   21.7472 H           1 MOL       0.0557
     76 H29        12.5968  -12.7641   23.1665 H           1 MOL       0.0599
     77 H30         9.8244  -11.7767   25.0799 H           1 MOL       0.3180
     78 H31        10.8391  -12.6276   24.1622 H           1 MOL       0.3180
     79 H32        11.0789   -8.8421   24.6987 H           1 MOL       0.3180
     80 H33         9.9437   -9.7731   25.3589 H           1 MOL       0.3180
     81 H34        12.5125   -8.5337   23.3528 H           1 MOL       0.0599
     82 H35        14.3841   -8.4382   21.9044 H           1 MOL       0.0557
@<TRIPOS>BOND
     1     1     3   1
     2     1     7   2
     3     1     8   2
     4    14     1  am
     5    12     2   1
     6     3     9  ar
     7     3    10  ar
     8     5     4   1
     9     6     5   1
    10    11     6  ar
    11    12     6  ar
    12     9    11  ar
    13    10    12  ar
    14    13    15   2
    15    25    13   1
    16    13    30  am
    17    25    14   1
    18    16    17   1
    19    29    16   1
    20    17    18  ar
    21    17    22  ar
    22    18    19  ar
    23    19    20  ar
    24    21    20  ar
    25    20    23   1
    26    22    21  ar
    27    23    24   3
    28    26    25   1
    29    27    26   1
    30    27    28   2
    31    27    29  am
    32    30    31   1
    33    30    36   1
    34    31    32   1
    35    31    34   1
    36    32    33   2
    37    32    37  am
    38    34    35   1
    39    35    36   1
    40    37    38   1
    41    38    39   1
    42    39    40  ar
    43    39    47  ar
    44    40    41  ar
    45    41    42  ar
    46    42    43   1
    47    42    46  ar
    48    43    44  ar
    49    43    45  ar
    50    46    47  ar
    51     4    48   1
    52     4    49   1
    53     4    50   1
    54     9    51   1
    55    10    52   1
    56    11    53   1
    57    14    54   1
    58    16    55   1
    59    16    56   1
    60    18    57   1
    61    19    58   1
    62    21    59   1
    63    22    60   1
    64    25    61   1
    65    26    62   1
    66    26    63   1
    67    29    64   1
    68    31    65   1
    69    34    66   1
    70    34    67   1
    71    35    68   1
    72    35    69   1
    73    36    70   1
    74    36    71   1
    75    37    72   1
    76    38    73   1
    77    38    74   1
    78    40    75   1
    79    41    76   1
    80    44    77   1
    81    44    78   1
    82    45    79   1
    83    45    80   1
    84    46    81   1
    85    47    82   1
@<TRIPOS>SUBSTRUCTURE
     1  MOL      2

