@<TRIPOS>MOLECULE
3utu_ligand_017
    82    85
SMALL
GAST_HUCK
****
This file was generated by PARSER (from files_GN.cpp)

@<TRIPOS>ATOM
      1 S8         15.8011  -16.2175   22.0582 S.o2        1 MOL       0.0657
      2 CL         12.6627  -18.3809   18.2157 Cl          1 MOL      -0.0788
      3 C35        15.3994  -16.4246   20.3741 C.ar        1 MOL       0.0977
      4 C10        15.3722  -18.1697   15.7158 C.3         1 MOL       0.0596
      5 O9         14.5942  -17.1071   16.3005 O.3         1 MOL      -0.3203
      6 C5         14.8556  -16.9046   17.6321 C.ar        1 MOL       0.1052
      7 O1         14.6342  -16.7328   23.0116 O.2         1 MOL      -0.1516
      8 O10        17.0234  -17.2196   22.2283 O.2         1 MOL      -0.1516
      9 C7         16.2223  -15.8600   19.3757 C.ar        1 MOL      -0.0438
     10 C3         14.2955  -17.2134   19.9912 C.ar        1 MOL      -0.0300
     11 C6         15.9391  -16.0847   18.0121 C.ar        1 MOL      -0.0306
     12 C4         14.0126  -17.4466   18.6290 C.ar        1 MOL       0.0696
     13 C13        18.6135  -14.3759   22.3794 C.2         1 MOL       0.2048
     14 N11        16.2326  -14.6303   22.4441 N.am        1 MOL      -0.2244
     15 O14        19.1304  -15.4845   22.4783 O.2         1 MOL      -0.3945
     16 C15        16.2278  -18.1109   25.3442 C.3         1 MOL       0.0687
     17 C31        16.2268  -18.5211   26.7746 C.ar        1 MOL      -0.0116
     18 C32        17.3393  -18.2234   27.5949 C.ar        1 MOL      -0.0467
     19 C33        17.3770  -18.6339   28.9439 C.ar        1 MOL      -0.0334
     20 C44        16.2967  -19.3618   29.4961 C.ar        1 MOL       0.0883
     21 C8         15.1804  -19.6640   28.6859 C.ar        1 MOL      -0.0334
     22 C9         15.1524  -19.2556   27.3378 C.ar        1 MOL      -0.0467
     23 C40        16.3210  -19.7230   30.7506 C.1         1 MOL       0.0934
     24 N63        16.3479  -20.0293   31.8617 N.1         1 MOL      -0.3338
     25 C45        17.3872  -14.1729   23.1660 C.3         1 MOL       0.1430
     26 C12        17.4375  -14.5785   24.6799 C.3         1 MOL       0.0742
     27 C46        17.4737  -16.0009   24.9975 C.2         1 MOL       0.1821
     28 O22        18.5577  -16.5456   25.1687 O.2         1 MOL      -0.3967
     29 N14        16.3471  -16.6930   25.1599 N.am        1 MOL      -0.2739
     30 N15        19.1687  -13.5059   21.5128 N.am        1 MOL      -0.2500
     31 C16        18.6827  -12.1796   21.2038 C.3         1 MOL       0.1338
     32 C17        17.3918  -12.1930   20.5173 C.2         1 MOL       0.2037
     33 O18        17.1770  -13.0715   19.6846 O.2         1 MOL      -0.3944
     34 C34        19.7909  -11.5316   20.3317 C.3         1 MOL      -0.0104
     35 C1         20.5429  -12.7189   19.7237 C.3         1 MOL      -0.0281
     36 C2         20.3820  -13.8115   20.7926 C.3         1 MOL       0.0369
     37 N19        16.4987  -11.2461   20.7799 N.am        1 MOL      -0.2737
     38 C20        15.1866  -11.1322   20.2200 C.3         1 MOL       0.0645
     39 C21        14.1887  -11.0929   21.3148 C.ar        1 MOL      -0.0210
     40 C26        13.9465   -9.8896   22.0101 C.ar        1 MOL      -0.0584
     41 C25        12.9730   -9.8259   23.0224 C.ar        1 MOL      -0.0633
     42 C24        12.2090  -10.9648   23.3910 C.ar        1 MOL       0.0188
     43 C27        11.1917  -10.8848   24.3595 C.cat       1 MOL       0.2318
     44 N29        10.7164   -9.7716   24.7690 N.pl3       1 MOL      -0.2729
     45 N28        10.6501  -11.9184   24.8842 N.pl3       1 MOL      -0.2729
     46 C23        12.4931  -12.1784   22.7088 C.ar        1 MOL      -0.0633
     47 C22        13.4599  -12.2419   21.6874 C.ar        1 MOL      -0.0584
     48 H1         15.0614  -18.2813   14.6766 H           1 MOL       0.0578
     49 H2         15.2058  -19.1253   16.2233 H           1 MOL       0.0578
     50 H3         16.4406  -17.9350   15.7278 H           1 MOL       0.0578
     51 H4         17.0332  -15.2913   19.6289 H           1 MOL       0.0610
     52 H5         13.6885  -17.6279   20.7020 H           1 MOL       0.0614
     53 H6         16.5352  -15.6605   17.2967 H           1 MOL       0.0542
     54 H7         15.6740  -13.9411   22.0451 H           1 MOL       0.1706
     55 H8         15.3055  -18.4131   24.8449 H           1 MOL       0.0704
     56 H9         17.0368  -18.6434   24.8382 H           1 MOL       0.0704
     57 H10        18.1381  -17.7070   27.2146 H           1 MOL       0.0584
     58 H11        18.1948  -18.3961   29.5191 H           1 MOL       0.0701
     59 H12        14.3788  -20.1787   29.0682 H           1 MOL       0.0701
     60 H13        14.3377  -19.4929   26.7682 H           1 MOL       0.0584
     61 H14        17.2171  -13.0936   23.2178 H           1 MOL       0.0779
     62 H15        16.5702  -14.1238   25.1661 H           1 MOL       0.0547
     63 H16        18.3077  -14.1038   25.1396 H           1 MOL       0.0547
     64 H17        15.5228  -16.1976   25.0419 H           1 MOL       0.1881
     65 H18        18.6224  -11.5968   22.1339 H           1 MOL       0.0802
     66 H19        20.4781  -10.9561   20.9622 H           1 MOL       0.0313
     67 H20        19.3979  -10.8687   19.5555 H           1 MOL       0.0313
     68 H21        21.5948  -12.4815   19.5334 H           1 MOL       0.0287
     69 H22        20.0655  -13.0274   18.7880 H           1 MOL       0.0287
     70 H23        20.3452  -14.7892   20.3025 H           1 MOL       0.0524
     71 H24        21.2278  -13.7859   21.4876 H           1 MOL       0.0524
     72 H25        16.7718  -10.5321   21.3865 H           1 MOL       0.1878
     73 H26        14.9580  -11.9428   19.5196 H           1 MOL       0.0683
     74 H27        15.1343  -10.2000   19.6506 H           1 MOL       0.0683
     75 H28        14.4684   -9.0410   21.7718 H           1 MOL       0.0557
     76 H29        12.8393   -8.9263   23.4946 H           1 MOL       0.0599
     77 H30        10.0198   -9.7621   25.3952 H           1 MOL       0.3180
     78 H31        11.0324   -8.9596   24.4296 H           1 MOL       0.3180
     79 H32        10.9248  -12.7811   24.6515 H           1 MOL       0.3180
     80 H33         9.9530  -11.8120   25.4999 H           1 MOL       0.3180
     81 H34        11.9757  -13.0348   22.9241 H           1 MOL       0.0599
     82 H35        13.6176  -13.1337   21.2106 H           1 MOL       0.0557
@<TRIPOS>BOND
     1     1     3   1
     2     1     7   2
     3     1     8   2
     4    14     1  am
     5    12     2   1
     6     3     9  ar
     7     3    10  ar
     8     5     4   1
     9     6     5   1
    10    11     6  ar
    11    12     6  ar
    12     9    11  ar
    13    10    12  ar
    14    13    15   2
    15    25    13   1
    16    13    30  am
    17    25    14   1
    18    16    17   1
    19    29    16   1
    20    17    18  ar
    21    17    22  ar
    22    18    19  ar
    23    19    20  ar
    24    21    20  ar
    25    20    23   1
    26    22    21  ar
    27    23    24   3
    28    26    25   1
    29    27    26   1
    30    27    28   2
    31    27    29  am
    32    30    31   1
    33    30    36   1
    34    31    32   1
    35    31    34   1
    36    32    33   2
    37    32    37  am
    38    34    35   1
    39    35    36   1
    40    37    38   1
    41    38    39   1
    42    39    40  ar
    43    39    47  ar
    44    40    41  ar
    45    41    42  ar
    46    42    43   1
    47    42    46  ar
    48    43    44  ar
    49    43    45  ar
    50    46    47  ar
    51     4    48   1
    52     4    49   1
    53     4    50   1
    54     9    51   1
    55    10    52   1
    56    11    53   1
    57    14    54   1
    58    16    55   1
    59    16    56   1
    60    18    57   1
    61    19    58   1
    62    21    59   1
    63    22    60   1
    64    25    61   1
    65    26    62   1
    66    26    63   1
    67    29    64   1
    68    31    65   1
    69    34    66   1
    70    34    67   1
    71    35    68   1
    72    35    69   1
    73    36    70   1
    74    36    71   1
    75    37    72   1
    76    38    73   1
    77    38    74   1
    78    40    75   1
    79    41    76   1
    80    44    77   1
    81    44    78   1
    82    45    79   1
    83    45    80   1
    84    46    81   1
    85    47    82   1
@<TRIPOS>SUBSTRUCTURE
     1  MOL      2

