@<TRIPOS>MOLECULE
3utu_ligand_062
    82    85
SMALL
GAST_HUCK
****
This file was generated by PARSER (from files_GN.cpp)

@<TRIPOS>ATOM
      1 S8         16.7811  -17.3629   23.9216 S.o2        1 MOL       0.0657
      2 CL         12.4871  -20.1624   25.5571 Cl          1 MOL      -0.0788
      3 C35        15.9794  -18.2587   25.1841 C.ar        1 MOL       0.0977
      4 C10        13.2887  -19.6817   29.0886 C.3         1 MOL       0.0596
      5 O9         14.0115  -20.4944   28.1455 O.3         1 MOL      -0.3203
      6 C5         14.6301  -19.7517   27.1776 C.ar        1 MOL       0.1052
      7 O1         17.8813  -16.3800   24.5162 O.2         1 MOL      -0.1516
      8 O10        17.5903  -18.3720   22.9939 O.2         1 MOL      -0.1516
      9 C7         16.5972  -18.5031   26.4253 C.ar        1 MOL      -0.0438
     10 C3         14.6891  -18.7759   24.9427 C.ar        1 MOL      -0.0300
     11 C6         15.9280  -19.2490   27.4130 C.ar        1 MOL      -0.0306
     12 C4         14.0166  -19.5292   25.9257 C.ar        1 MOL       0.0696
     13 C13        15.8455  -15.9229   20.6544 C.2         1 MOL       0.2048
     14 N11        15.7289  -16.4204   23.0034 N.am        1 MOL      -0.2244
     15 O14        16.6208  -15.0448   21.0175 O.2         1 MOL      -0.3945
     16 C15        11.0571  -18.7593   20.0473 C.3         1 MOL       0.0687
     17 C31        11.7456  -19.6105   19.0421 C.ar        1 MOL      -0.0116
     18 C32        11.9490  -20.9939   19.2596 C.ar        1 MOL      -0.0467
     19 C33        12.6110  -21.7844   18.3009 C.ar        1 MOL      -0.0334
     20 C44        13.0699  -21.2069   17.0976 C.ar        1 MOL       0.0883
     21 C8         12.8772  -19.8278   16.8767 C.ar        1 MOL      -0.0334
     22 C9         12.2187  -19.0394   17.8374 C.ar        1 MOL      -0.0467
     23 C40        13.6516  -21.9361   16.1894 C.1         1 MOL       0.0934
     24 N63        14.1603  -22.5707   15.3769 N.1         1 MOL      -0.3338
     25 C45        15.2184  -16.7500   21.7032 C.3         1 MOL       0.1430
     26 C12        13.6512  -16.6007   21.7575 C.3         1 MOL       0.0742
     27 C46        12.8771  -17.7827   21.3916 C.2         1 MOL       0.1821
     28 O22        13.0893  -18.8403   21.9657 O.2         1 MOL      -0.3967
     29 N14        11.8948  -17.6897   20.4974 N.am        1 MOL      -0.2739
     30 N15        15.6271  -16.0449   19.3304 N.am        1 MOL      -0.2500
     31 C16        16.1979  -15.1672   18.3251 C.3         1 MOL       0.1338
     32 C17        15.9494  -13.7353   18.4720 C.2         1 MOL       0.2037
     33 O18        16.7667  -12.9614   17.9831 O.2         1 MOL      -0.3944
     34 C34        15.6527  -15.6702   16.9676 C.3         1 MOL      -0.0104
     35 C1         15.2741  -17.1250   17.2501 C.3         1 MOL      -0.0281
     36 C2         14.8710  -17.1062   18.7333 C.3         1 MOL       0.0369
     37 N19        14.8981  -13.2858   19.1445 N.am        1 MOL      -0.2737
     38 C20        14.6981  -11.9186   19.5185 C.3         1 MOL       0.0645
     39 C21        13.6414  -11.7521   20.5484 C.ar        1 MOL      -0.0210
     40 C26        12.6979  -10.7046   20.4566 C.ar        1 MOL      -0.0584
     41 C25        11.7820  -10.4662   21.4978 C.ar        1 MOL      -0.0633
     42 C24        11.7556  -11.2865   22.6529 C.ar        1 MOL       0.0188
     43 C27        10.8588  -11.0390   23.7007 C.cat       1 MOL       0.2318
     44 N29        10.4808   -9.8576   24.0128 N.pl3       1 MOL      -0.2729
     45 N28        10.3784  -11.9791   24.4131 N.pl3       1 MOL      -0.2729
     46 C23        12.6850  -12.3543   22.7242 C.ar        1 MOL      -0.0633
     47 C22        13.6267  -12.5672   21.7026 C.ar        1 MOL      -0.0584
     48 H1         12.8305  -20.3503   29.8208 H           1 MOL       0.0578
     49 H2         12.4887  -19.1123   28.6013 H           1 MOL       0.0578
     50 H3         13.9560  -18.9947   29.6216 H           1 MOL       0.0578
     51 H4         17.5379  -18.1466   26.6192 H           1 MOL       0.0610
     52 H5         14.2439  -18.6185   24.0426 H           1 MOL       0.0614
     53 H6         16.3887  -19.4274   28.3079 H           1 MOL       0.0542
     54 H7         15.5068  -15.5462   23.3531 H           1 MOL       0.1706
     55 H8         10.7255  -19.3391   20.9123 H           1 MOL       0.0704
     56 H9         10.1643  -18.3245   19.5913 H           1 MOL       0.0704
     57 H10        11.6187  -21.4307   20.1236 H           1 MOL       0.0584
     58 H11        12.7458  -22.7818   18.4916 H           1 MOL       0.0701
     59 H12        13.2077  -19.3838   16.0160 H           1 MOL       0.0701
     60 H13        12.0790  -18.0436   17.6495 H           1 MOL       0.0584
     61 H14        15.4829  -17.7888   21.4967 H           1 MOL       0.0779
     62 H15        13.3376  -15.7573   21.1395 H           1 MOL       0.0547
     63 H16        13.3287  -16.3401   22.7659 H           1 MOL       0.0547
     64 H17        11.7434  -16.8191   20.0953 H           1 MOL       0.1881
     65 H18        17.2794  -15.3389   18.3545 H           1 MOL       0.0802
     66 H19        16.4026  -15.5890   16.1761 H           1 MOL       0.0313
     67 H20        14.7534  -15.1241   16.6636 H           1 MOL       0.0313
     68 H21        16.1439  -17.7726   17.1017 H           1 MOL       0.0287
     69 H22        14.4581  -17.4588   16.6044 H           1 MOL       0.0287
     70 H23        13.8064  -16.8897   18.8239 H           1 MOL       0.0524
     71 H24        15.0872  -18.0832   19.1737 H           1 MOL       0.0524
     72 H25        14.2663  -13.9434   19.4844 H           1 MOL       0.1878
     73 H26        14.4731  -11.3414   18.6175 H           1 MOL       0.0683
     74 H27        15.6245  -11.5263   19.9473 H           1 MOL       0.0683
     75 H28        12.6914  -10.0810   19.6464 H           1 MOL       0.0557
     76 H29        11.1290   -9.6837   21.3984 H           1 MOL       0.0599
     77 H30         9.8866   -9.7326   24.7273 H           1 MOL       0.3180
     78 H31        10.8074   -9.1120   23.5518 H           1 MOL       0.3180
     79 H32        10.5955  -12.8730   24.2389 H           1 MOL       0.3180
     80 H33         9.7715  -11.7847   25.0994 H           1 MOL       0.3180
     81 H34        12.7179  -12.9666   23.5428 H           1 MOL       0.0599
     82 H35        14.3093  -13.3195   21.8151 H           1 MOL       0.0557
@<TRIPOS>BOND
     1     1     3   1
     2     1     7   2
     3     1     8   2
     4    14     1  am
     5    12     2   1
     6     3     9  ar
     7     3    10  ar
     8     5     4   1
     9     6     5   1
    10    11     6  ar
    11    12     6  ar
    12     9    11  ar
    13    10    12  ar
    14    13    15   2
    15    25    13   1
    16    13    30  am
    17    25    14   1
    18    16    17   1
    19    29    16   1
    20    17    18  ar
    21    17    22  ar
    22    18    19  ar
    23    19    20  ar
    24    21    20  ar
    25    20    23   1
    26    22    21  ar
    27    23    24   3
    28    26    25   1
    29    27    26   1
    30    27    28   2
    31    27    29  am
    32    30    31   1
    33    30    36   1
    34    31    32   1
    35    31    34   1
    36    32    33   2
    37    32    37  am
    38    34    35   1
    39    35    36   1
    40    37    38   1
    41    38    39   1
    42    39    40  ar
    43    39    47  ar
    44    40    41  ar
    45    41    42  ar
    46    42    43   1
    47    42    46  ar
    48    43    44  ar
    49    43    45  ar
    50    46    47  ar
    51     4    48   1
    52     4    49   1
    53     4    50   1
    54     9    51   1
    55    10    52   1
    56    11    53   1
    57    14    54   1
    58    16    55   1
    59    16    56   1
    60    18    57   1
    61    19    58   1
    62    21    59   1
    63    22    60   1
    64    25    61   1
    65    26    62   1
    66    26    63   1
    67    29    64   1
    68    31    65   1
    69    34    66   1
    70    34    67   1
    71    35    68   1
    72    35    69   1
    73    36    70   1
    74    36    71   1
    75    37    72   1
    76    38    73   1
    77    38    74   1
    78    40    75   1
    79    41    76   1
    80    44    77   1
    81    44    78   1
    82    45    79   1
    83    45    80   1
    84    46    81   1
    85    47    82   1
@<TRIPOS>SUBSTRUCTURE
     1  MOL      2

