@<TRIPOS>MOLECULE
3utu_ligand_046
    82    85
SMALL
GAST_HUCK
****
This file was generated by PARSER (from files_GN.cpp)

@<TRIPOS>ATOM
      1 S8         17.1298  -15.8550   26.0549 S.o2        1 MOL       0.0657
      2 CL         20.1739  -20.2519   26.9504 Cl          1 MOL      -0.0788
      3 C35        17.9536  -16.9316   27.1515 C.ar        1 MOL       0.0977
      4 C10        19.3204  -20.0647   30.8739 C.3         1 MOL       0.0596
      5 O9         20.0730  -19.4113   29.8308 O.3         1 MOL      -0.3203
      6 C5         19.3467  -18.6274   28.9633 C.ar        1 MOL       0.1052
      7 O1         15.9588  -16.6102   25.2839 O.2         1 MOL      -0.1516
      8 O10        16.3070  -14.7565   26.8565 O.2         1 MOL      -0.1516
      9 C7         17.9867  -16.6362   28.5270 C.ar        1 MOL      -0.0438
     10 C3         18.6391  -18.0736   26.6803 C.ar        1 MOL      -0.0300
     11 C6         18.6836  -17.4689   29.4207 C.ar        1 MOL      -0.0306
     12 C4         19.3369  -18.9117   27.5762 C.ar        1 MOL       0.0696
     13 C13        18.2361  -13.9097   22.9651 C.2         1 MOL       0.2048
     14 N11        18.1812  -14.9714   25.0698 N.am        1 MOL      -0.2244
     15 O14        17.1314  -13.4221   23.1853 O.2         1 MOL      -0.3945
     16 C15        20.1680  -18.6682   21.0016 C.3         1 MOL       0.0687
     17 C31        21.6142  -18.4616   21.2728 C.ar        1 MOL      -0.0116
     18 C32        22.1978  -18.9194   22.4784 C.ar        1 MOL      -0.0467
     19 C33        23.5701  -18.7368   22.7316 C.ar        1 MOL      -0.0334
     20 C44        24.3868  -18.0920   21.7786 C.ar        1 MOL       0.0883
     21 C8         23.8150  -17.6309   20.5742 C.ar        1 MOL      -0.0334
     22 C9         22.4416  -17.8115   20.3279 C.ar        1 MOL      -0.0467
     23 C40        25.6607  -17.9264   22.0047 C.1         1 MOL       0.0934
     24 N63        26.7812  -17.7807   22.2029 N.1         1 MOL      -0.3338
     25 C45        18.5169  -15.1667   23.6831 C.3         1 MOL       0.1430
     26 C12        17.8785  -16.3995   22.9600 C.3         1 MOL       0.0742
     27 C46        18.6226  -16.9106   21.8197 C.2         1 MOL       0.1821
     28 O22        18.5285  -16.3430   20.7368 O.2         1 MOL      -0.3967
     29 N14        19.3813  -17.9891   21.9811 N.am        1 MOL      -0.2739
     30 N15        19.0419  -13.2942   22.0740 N.am        1 MOL      -0.2500
     31 C16        18.6691  -12.1064   21.3301 C.3         1 MOL       0.1338
     32 C17        17.3740  -12.1627   20.6499 C.2         1 MOL       0.2037
     33 O18        17.1287  -13.1327   19.9426 O.2         1 MOL      -0.3944
     34 C34        19.8115  -11.8754   20.3090 C.3         1 MOL      -0.0104
     35 C1         21.0134  -12.6132   20.9033 C.3         1 MOL      -0.0281
     36 C2         20.3958  -13.6970   21.8022 C.3         1 MOL       0.0369
     37 N19        16.4860  -11.1948   20.8349 N.am        1 MOL      -0.2737
     38 C20        15.1728  -11.1111   20.2765 C.3         1 MOL       0.0645
     39 C21        14.1735  -11.0621   21.3713 C.ar        1 MOL      -0.0210
     40 C26        13.9240   -9.8565   22.0642 C.ar        1 MOL      -0.0584
     41 C25        12.9508   -9.7989   23.0778 C.ar        1 MOL      -0.0633
     42 C24        12.1927  -10.9414   23.4493 C.ar        1 MOL       0.0188
     43 C27        11.1751  -10.8726   24.4180 C.cat       1 MOL       0.2318
     44 N29        10.6852   -9.7571   24.8234 N.pl3       1 MOL      -0.2729
     45 N28        10.6384  -11.9011   24.9473 N.pl3       1 MOL      -0.2729
     46 C23        12.4842  -12.1552   22.7689 C.ar        1 MOL      -0.0633
     47 C22        13.4525  -12.2129   21.7501 C.ar        1 MOL      -0.0584
     48 H1         19.9936  -20.7154   31.4273 H           1 MOL       0.0578
     49 H2         18.5175  -20.6795   30.4632 H           1 MOL       0.0578
     50 H3         18.9003  -19.3359   31.5721 H           1 MOL       0.0578
     51 H4         17.5173  -15.8097   28.8946 H           1 MOL       0.0610
     52 H5         18.6394  -18.2928   25.6805 H           1 MOL       0.0614
     53 H6         18.7168  -17.2169   30.4110 H           1 MOL       0.0542
     54 H7         18.6377  -14.2356   25.5129 H           1 MOL       0.1706
     55 H8         19.9429  -19.7360   21.0626 H           1 MOL       0.0704
     56 H9         19.9002  -18.3484   19.9880 H           1 MOL       0.0704
     57 H10        21.6247  -19.3931   23.1803 H           1 MOL       0.0584
     58 H11        23.9634  -19.0813   23.6108 H           1 MOL       0.0701
     59 H12        24.3850  -17.1584   19.8672 H           1 MOL       0.0701
     60 H13        22.0512  -17.4659   19.4488 H           1 MOL       0.0584
     61 H14        19.5945  -15.3434   23.7249 H           1 MOL       0.0779
     62 H15        16.8547  -16.1652   22.6480 H           1 MOL       0.0547
     63 H16        17.7959  -17.2142   23.6735 H           1 MOL       0.0547
     64 H17        19.4223  -18.3624   22.8790 H           1 MOL       0.1881
     65 H18        18.6765  -11.2730   22.0436 H           1 MOL       0.0802
     66 H19        20.0205  -10.8099   20.1774 H           1 MOL       0.0313
     67 H20        19.5809  -12.3084   19.3286 H           1 MOL       0.0313
     68 H21        21.6196  -11.9243   21.4966 H           1 MOL       0.0287
     69 H22        21.6352  -13.0503   20.1192 H           1 MOL       0.0287
     70 H23        20.4154  -14.6589   21.2874 H           1 MOL       0.0524
     71 H24        20.9828  -13.7653   22.7222 H           1 MOL       0.0524
     72 H25        16.7497  -10.4608   21.4131 H           1 MOL       0.1878
     73 H26        14.9536  -11.9423   19.5985 H           1 MOL       0.0683
     74 H27        15.1104  -10.1994   19.6796 H           1 MOL       0.0683
     75 H28        14.4435   -9.0076   21.8246 H           1 MOL       0.0557
     76 H29        12.8096   -8.8997   23.5437 H           1 MOL       0.0599
     77 H30         9.9893   -9.7547   25.4464 H           1 MOL       0.3180
     78 H31        10.9910   -8.9471   24.4803 H           1 MOL       0.3180
     79 H32        10.9147  -12.7670   24.7201 H           1 MOL       0.3180
     80 H33         9.9369  -11.7984   25.5598 H           1 MOL       0.3180
     81 H34        11.9730  -13.0136   22.9822 H           1 MOL       0.0599
     82 H35        13.6199  -13.1060   21.2771 H           1 MOL       0.0557
@<TRIPOS>BOND
     1     1     3   1
     2     1     7   2
     3     1     8   2
     4    14     1  am
     5    12     2   1
     6     3     9  ar
     7     3    10  ar
     8     5     4   1
     9     6     5   1
    10    11     6  ar
    11    12     6  ar
    12     9    11  ar
    13    10    12  ar
    14    13    15   2
    15    25    13   1
    16    13    30  am
    17    25    14   1
    18    16    17   1
    19    29    16   1
    20    17    18  ar
    21    17    22  ar
    22    18    19  ar
    23    19    20  ar
    24    21    20  ar
    25    20    23   1
    26    22    21  ar
    27    23    24   3
    28    26    25   1
    29    27    26   1
    30    27    28   2
    31    27    29  am
    32    30    31   1
    33    30    36   1
    34    31    32   1
    35    31    34   1
    36    32    33   2
    37    32    37  am
    38    34    35   1
    39    35    36   1
    40    37    38   1
    41    38    39   1
    42    39    40  ar
    43    39    47  ar
    44    40    41  ar
    45    41    42  ar
    46    42    43   1
    47    42    46  ar
    48    43    44  ar
    49    43    45  ar
    50    46    47  ar
    51     4    48   1
    52     4    49   1
    53     4    50   1
    54     9    51   1
    55    10    52   1
    56    11    53   1
    57    14    54   1
    58    16    55   1
    59    16    56   1
    60    18    57   1
    61    19    58   1
    62    21    59   1
    63    22    60   1
    64    25    61   1
    65    26    62   1
    66    26    63   1
    67    29    64   1
    68    31    65   1
    69    34    66   1
    70    34    67   1
    71    35    68   1
    72    35    69   1
    73    36    70   1
    74    36    71   1
    75    37    72   1
    76    38    73   1
    77    38    74   1
    78    40    75   1
    79    41    76   1
    80    44    77   1
    81    44    78   1
    82    45    79   1
    83    45    80   1
    84    46    81   1
    85    47    82   1
@<TRIPOS>SUBSTRUCTURE
     1  MOL      2

