@<TRIPOS>MOLECULE
3utu_ligand_058
    82    85
SMALL
GAST_HUCK
****
This file was generated by PARSER (from files_GN.cpp)

@<TRIPOS>ATOM
      1 S8         17.6772  -16.1130   24.6411 S.o2        1 MOL       0.0657
      2 CL         13.2268  -17.4050   21.8675 Cl          1 MOL      -0.0788
      3 C35        16.8082  -17.2363   23.6322 C.ar        1 MOL       0.0977
      4 C10        13.9428  -20.8121   21.6691 C.3         1 MOL       0.0596
      5 O9         14.7930  -19.8454   21.0269 O.3         1 MOL      -0.3203
      6 C5         15.4208  -18.9979   21.9004 C.ar        1 MOL       0.1052
      7 O1         16.6477  -15.4958   25.6874 O.2         1 MOL      -0.1516
      8 O10        18.8455  -16.8045   25.4687 O.2         1 MOL      -0.1516
      9 C7         17.4367  -18.4019   23.1495 C.ar        1 MOL      -0.0438
     10 C3         15.4880  -16.9442   23.2253 C.ar        1 MOL      -0.0300
     11 C6         16.7477  -19.2750   22.2889 C.ar        1 MOL      -0.0306
     12 C4         14.7969  -17.8138   22.3565 C.ar        1 MOL       0.0696
     13 C13        17.9783  -12.8043   22.6716 C.2         1 MOL       0.2048
     14 N11        18.3381  -14.9185   23.6492 N.am        1 MOL      -0.2244
     15 O14        16.8811  -12.2512   22.6941 O.2         1 MOL      -0.3945
     16 C15        23.3194  -13.1747   24.4765 C.3         1 MOL       0.0687
     17 C31        23.7589  -14.4059   25.1960 C.ar        1 MOL      -0.0116
     18 C32        25.0085  -14.9837   24.8750 C.ar        1 MOL      -0.0467
     19 C33        25.4109  -16.2058   25.4414 C.ar        1 MOL      -0.0334
     20 C44        24.5802  -16.8639   26.3700 C.ar        1 MOL       0.0883
     21 C8         23.3575  -16.2706   26.7480 C.ar        1 MOL      -0.0334
     22 C9         22.9550  -15.0513   26.1710 C.ar        1 MOL      -0.0467
     23 C40        24.9334  -18.0189   26.8555 C.1         1 MOL       0.0934
     24 N63        25.2482  -19.0426   27.2723 N.1         1 MOL      -0.3338
     25 C45        18.3222  -13.5154   23.9202 C.3         1 MOL       0.1430
     26 C12        19.5608  -12.9803   24.7259 C.3         1 MOL       0.0742
     27 C46        20.8836  -13.5208   24.4656 C.2         1 MOL       0.1821
     28 O22        21.0191  -14.7015   24.1736 O.2         1 MOL      -0.3967
     29 N14        21.9625  -12.7633   24.6852 N.am        1 MOL      -0.2739
     30 N15        18.6618  -12.7611   21.5029 N.am        1 MOL      -0.2500
     31 C16        18.1283  -12.1731   20.2879 C.3         1 MOL       0.1338
     32 C17        16.8533  -12.7500   19.8638 C.2         1 MOL       0.2037
     33 O18        16.7944  -13.9522   19.6275 O.2         1 MOL      -0.3944
     34 C34        19.2097  -12.3552   19.1926 C.3         1 MOL      -0.0104
     35 C1         20.4923  -12.6084   19.9824 C.3         1 MOL      -0.0281
     36 C2         19.9970  -13.2438   21.2961 C.3         1 MOL       0.0369
     37 N19        15.7795  -11.9750   19.7932 N.am        1 MOL      -0.2737
     38 C20        14.4555  -12.3652   19.4310 C.3         1 MOL       0.0645
     39 C21        13.5287  -12.0121   20.5340 C.ar        1 MOL      -0.0210
     40 C26        13.4882  -12.7972   21.7066 C.ar        1 MOL      -0.0584
     41 C25        12.5985  -12.4798   22.7480 C.ar        1 MOL      -0.0633
     42 C24        11.7372  -11.3552   22.6678 C.ar        1 MOL       0.0188
     43 C27        10.8363  -11.0524   23.6965 C.cat       1 MOL       0.2318
     44 N29        10.3025  -11.9627   24.4212 N.pl3       1 MOL      -0.2729
     45 N28        10.4788   -9.8561   23.9718 N.pl3       1 MOL      -0.2729
     46 C23        11.8084  -10.5596   21.4954 C.ar        1 MOL      -0.0633
     47 C22        12.6839  -10.8853   20.4442 C.ar        1 MOL      -0.0584
     48 H1         13.5339  -21.4660   20.8986 H           1 MOL       0.0578
     49 H2         13.1083  -20.3287   22.1829 H           1 MOL       0.0578
     50 H3         14.4977  -21.4313   22.3787 H           1 MOL       0.0578
     51 H4         18.4026  -18.6187   23.4097 H           1 MOL       0.0610
     52 H5         15.0299  -16.0900   23.5535 H           1 MOL       0.0614
     53 H6         17.2195  -20.1125   21.9390 H           1 MOL       0.0542
     54 H7         18.8655  -15.2267   22.8982 H           1 MOL       0.1706
     55 H8         23.4478  -13.3226   23.3976 H           1 MOL       0.0704
     56 H9         23.9757  -12.3529   24.7775 H           1 MOL       0.0704
     57 H10        25.6267  -14.5311   24.1973 H           1 MOL       0.0584
     58 H11        26.3033  -16.6198   25.1509 H           1 MOL       0.0701
     59 H12        22.7451  -16.7265   27.4304 H           1 MOL       0.0701
     60 H13        22.0624  -14.6466   26.4571 H           1 MOL       0.0584
     61 H14        17.4838  -13.3517   24.6109 H           1 MOL       0.0779
     62 H15        19.3819  -13.1731   25.7886 H           1 MOL       0.0547
     63 H16        19.5869  -11.8919   24.6133 H           1 MOL       0.0547
     64 H17        21.8204  -11.8513   24.9929 H           1 MOL       0.1881
     65 H18        18.0171  -11.0965   20.4801 H           1 MOL       0.0802
     66 H19        19.2945  -11.4693   18.5617 H           1 MOL       0.0313
     67 H20        19.0148  -13.2195   18.5526 H           1 MOL       0.0313
     68 H21        20.9882  -11.6541   20.1905 H           1 MOL       0.0287
     69 H22        21.1837  -13.2668   19.4434 H           1 MOL       0.0287
     70 H23        19.9992  -14.3343   21.2163 H           1 MOL       0.0524
     71 H24        20.6776  -12.9259   22.0852 H           1 MOL       0.0524
     72 H25        15.9004  -11.0403   20.0274 H           1 MOL       0.1878
     73 H26        14.3671  -13.4334   19.2102 H           1 MOL       0.0683
     74 H27        14.2046  -11.8278   18.5131 H           1 MOL       0.0683
     75 H28        14.1003  -13.6124   21.8053 H           1 MOL       0.0557
     76 H29        12.5986  -13.0797   23.5753 H           1 MOL       0.0599
     77 H30         9.6828  -11.7319   25.0817 H           1 MOL       0.3180
     78 H31        10.4943  -12.8639   24.2715 H           1 MOL       0.3180
     79 H32        10.8262   -9.1319   23.4936 H           1 MOL       0.3180
     80 H33         9.8721   -9.6963   24.6674 H           1 MOL       0.3180
     81 H34        11.1988   -9.7479   21.3754 H           1 MOL       0.0599
     82 H35        12.7014  -10.2921   19.6108 H           1 MOL       0.0557
@<TRIPOS>BOND
     1     1     3   1
     2     1     7   2
     3     1     8   2
     4    14     1  am
     5    12     2   1
     6     3     9  ar
     7     3    10  ar
     8     5     4   1
     9     6     5   1
    10    11     6  ar
    11    12     6  ar
    12     9    11  ar
    13    10    12  ar
    14    13    15   2
    15    25    13   1
    16    13    30  am
    17    25    14   1
    18    16    17   1
    19    29    16   1
    20    17    18  ar
    21    17    22  ar
    22    18    19  ar
    23    19    20  ar
    24    21    20  ar
    25    20    23   1
    26    22    21  ar
    27    23    24   3
    28    26    25   1
    29    27    26   1
    30    27    28   2
    31    27    29  am
    32    30    31   1
    33    30    36   1
    34    31    32   1
    35    31    34   1
    36    32    33   2
    37    32    37  am
    38    34    35   1
    39    35    36   1
    40    37    38   1
    41    38    39   1
    42    39    40  ar
    43    39    47  ar
    44    40    41  ar
    45    41    42  ar
    46    42    43   1
    47    42    46  ar
    48    43    44  ar
    49    43    45  ar
    50    46    47  ar
    51     4    48   1
    52     4    49   1
    53     4    50   1
    54     9    51   1
    55    10    52   1
    56    11    53   1
    57    14    54   1
    58    16    55   1
    59    16    56   1
    60    18    57   1
    61    19    58   1
    62    21    59   1
    63    22    60   1
    64    25    61   1
    65    26    62   1
    66    26    63   1
    67    29    64   1
    68    31    65   1
    69    34    66   1
    70    34    67   1
    71    35    68   1
    72    35    69   1
    73    36    70   1
    74    36    71   1
    75    37    72   1
    76    38    73   1
    77    38    74   1
    78    40    75   1
    79    41    76   1
    80    44    77   1
    81    44    78   1
    82    45    79   1
    83    45    80   1
    84    46    81   1
    85    47    82   1
@<TRIPOS>SUBSTRUCTURE
     1  MOL      2

