@<TRIPOS>MOLECULE
3utu_ligand_063
    82    85
SMALL
GAST_HUCK
****
This file was generated by PARSER (from files_GN.cpp)

@<TRIPOS>ATOM
      1 S8         20.9345  -15.4760   25.1685 S.o2        1 MOL       0.0657
      2 CL         20.3395  -18.9336   21.0401 Cl          1 MOL      -0.0788
      3 C35        21.6396  -16.4170   23.8711 C.ar        1 MOL       0.0977
      4 C10        23.5702  -17.8756   19.5407 C.3         1 MOL       0.0596
      5 O9         23.3217  -18.6657   20.7153 O.3         1 MOL      -0.3203
      6 C5         22.7640  -17.9427   21.7433 C.ar        1 MOL       0.1052
      7 O1         20.7378  -16.3732   26.4658 O.2         1 MOL      -0.1516
      8 O10        22.0656  -14.4712   25.6624 O.2         1 MOL      -0.1516
      9 C7         23.0374  -16.4250   23.6486 C.ar        1 MOL      -0.0438
     10 C3         20.8232  -17.2487   23.0648 C.ar        1 MOL      -0.0300
     11 C6         23.5954  -17.1978   22.6092 C.ar        1 MOL      -0.0306
     12 C4         21.3733  -17.9872   21.9956 C.ar        1 MOL       0.0696
     13 C13        18.1623  -13.5748   23.2156 C.2         1 MOL       0.2048
     14 N11        19.6518  -14.4051   24.8863 N.am        1 MOL      -0.2244
     15 O14        17.0916  -12.9932   23.3962 O.2         1 MOL      -0.3945
     16 C15        17.6117  -18.1300   27.3225 C.3         1 MOL       0.0687
     17 C31        19.0222  -18.6056   27.3125 C.ar        1 MOL      -0.0116
     18 C32        19.8494  -18.4639   28.4499 C.ar        1 MOL      -0.0467
     19 C33        21.1682  -18.9553   28.4473 C.ar        1 MOL      -0.0334
     20 C44        21.6786  -19.6217   27.3129 C.ar        1 MOL       0.0883
     21 C8         20.8559  -19.7682   26.1738 C.ar        1 MOL      -0.0334
     22 C9         19.5441  -19.2589   26.1717 C.ar        1 MOL      -0.0467
     23 C40        22.8792  -20.1222   27.3274 C.1         1 MOL       0.0934
     24 N63        23.9373  -20.5712   27.3396 N.1         1 MOL      -0.3338
     25 C45        18.4713  -14.6982   24.1306 C.3         1 MOL       0.1430
     26 C12        17.2964  -15.0807   25.0996 C.3         1 MOL       0.0742
     27 C46        17.6405  -15.9193   26.2321 C.2         1 MOL       0.1821
     28 O22        18.1256  -15.3774   27.2279 O.2         1 MOL      -0.3967
     29 N14        17.3537  -17.2167   26.2454 N.am        1 MOL      -0.2739
     30 N15        18.9156  -13.1663   22.1711 N.am        1 MOL      -0.2500
     31 C16        18.5666  -12.0565   21.2919 C.3         1 MOL       0.1338
     32 C17        17.2769  -12.2039   20.6124 C.2         1 MOL       0.2037
     33 O18        17.0683  -13.2334   19.9882 O.2         1 MOL      -0.3944
     34 C34        19.7149  -11.9378   20.2580 C.3         1 MOL      -0.0104
     35 C1         20.8764  -12.7100   20.8937 C.3         1 MOL      -0.0281
     36 C2         20.1931  -13.7356   21.8111 C.3         1 MOL       0.0369
     37 N19        16.3801  -11.2303   20.6744 N.am        1 MOL      -0.2737
     38 C20        15.1194  -11.1898   19.9866 C.3         1 MOL       0.0645
     39 C21        14.0062  -11.0934   20.9579 C.ar        1 MOL      -0.0210
     40 C26        13.7956  -12.1265   21.8953 C.ar        1 MOL      -0.0584
     41 C25        12.7569  -12.0396   22.8394 C.ar        1 MOL      -0.0633
     42 C24        11.8946  -10.9141   22.8904 C.ar        1 MOL       0.0188
     43 C27        10.8981  -10.8031   23.8670 C.cat       1 MOL       0.2318
     44 N29        10.3305  -11.8245   24.3990 N.pl3       1 MOL      -0.2729
     45 N28        10.4869   -9.6709   24.3104 N.pl3       1 MOL      -0.2729
     46 C23        12.0988   -9.8962   21.9225 C.ar        1 MOL      -0.0633
     47 C22        13.1338   -9.9841   20.9730 C.ar        1 MOL      -0.0584
     48 H1         23.9742  -18.5419   18.7785 H           1 MOL       0.0578
     49 H2         24.3102  -17.0941   19.7327 H           1 MOL       0.0578
     50 H3         22.6519  -17.4196   19.1525 H           1 MOL       0.0578
     51 H4         23.6696  -15.8810   24.2458 H           1 MOL       0.0610
     52 H5         19.8208  -17.3159   23.2546 H           1 MOL       0.0614
     53 H6         24.6131  -17.1967   22.4685 H           1 MOL       0.0542
     54 H7         19.7030  -13.5377   25.3269 H           1 MOL       0.1706
     55 H8         17.3485  -17.6607   28.2794 H           1 MOL       0.0704
     56 H9         16.9437  -18.9983   27.2154 H           1 MOL       0.0704
     57 H10        19.4970  -17.9944   29.2896 H           1 MOL       0.0584
     58 H11        21.7385  -18.8418   29.2909 H           1 MOL       0.0701
     59 H12        21.2037  -20.2456   25.3372 H           1 MOL       0.0701
     60 H13        18.9562  -19.3957   25.3437 H           1 MOL       0.0584
     61 H14        18.6400  -15.5731   23.4960 H           1 MOL       0.0779
     62 H15        16.5300  -15.6001   24.5100 H           1 MOL       0.0547
     63 H16        16.8092  -14.1735   25.4874 H           1 MOL       0.0547
     64 H17        16.8794  -17.5810   25.4749 H           1 MOL       0.1881
     65 H18        18.5693  -11.1558   21.9108 H           1 MOL       0.0802
     66 H19        19.9843  -10.8904   20.0791 H           1 MOL       0.0313
     67 H20        19.4677  -12.4058   19.2947 H           1 MOL       0.0313
     68 H21        21.4880  -12.0165   21.4841 H           1 MOL       0.0287
     69 H22        21.5031  -13.1938   20.1368 H           1 MOL       0.0287
     70 H23        20.0392  -14.6852   21.2891 H           1 MOL       0.0524
     71 H24        20.8525  -13.8782   22.6665 H           1 MOL       0.0524
     72 H25        16.6028  -10.4485   21.2130 H           1 MOL       0.1878
     73 H26        14.9578  -12.0653   19.3533 H           1 MOL       0.0683
     74 H27        15.1425  -10.3215   19.3242 H           1 MOL       0.0683
     75 H28        14.4018  -12.9530   21.9004 H           1 MOL       0.0557
     76 H29        12.6604  -12.8093   23.5065 H           1 MOL       0.0599
     77 H30         9.6717  -11.7032   25.0489 H           1 MOL       0.3180
     78 H31        10.5649  -12.6897   24.1426 H           1 MOL       0.3180
     79 H32        10.8429   -8.8745   23.9802 H           1 MOL       0.3180
     80 H33         9.8239   -9.6373   24.9655 H           1 MOL       0.3180
     81 H34        11.4937   -9.0717   21.8880 H           1 MOL       0.0599
     82 H35        13.2456   -9.2243   20.2943 H           1 MOL       0.0557
@<TRIPOS>BOND
     1     1     3   1
     2     1     7   2
     3     1     8   2
     4    14     1  am
     5    12     2   1
     6     3     9  ar
     7     3    10  ar
     8     5     4   1
     9     6     5   1
    10    11     6  ar
    11    12     6  ar
    12     9    11  ar
    13    10    12  ar
    14    13    15   2
    15    25    13   1
    16    13    30  am
    17    25    14   1
    18    16    17   1
    19    29    16   1
    20    17    18  ar
    21    17    22  ar
    22    18    19  ar
    23    19    20  ar
    24    21    20  ar
    25    20    23   1
    26    22    21  ar
    27    23    24   3
    28    26    25   1
    29    27    26   1
    30    27    28   2
    31    27    29  am
    32    30    31   1
    33    30    36   1
    34    31    32   1
    35    31    34   1
    36    32    33   2
    37    32    37  am
    38    34    35   1
    39    35    36   1
    40    37    38   1
    41    38    39   1
    42    39    40  ar
    43    39    47  ar
    44    40    41  ar
    45    41    42  ar
    46    42    43   1
    47    42    46  ar
    48    43    44  ar
    49    43    45  ar
    50    46    47  ar
    51     4    48   1
    52     4    49   1
    53     4    50   1
    54     9    51   1
    55    10    52   1
    56    11    53   1
    57    14    54   1
    58    16    55   1
    59    16    56   1
    60    18    57   1
    61    19    58   1
    62    21    59   1
    63    22    60   1
    64    25    61   1
    65    26    62   1
    66    26    63   1
    67    29    64   1
    68    31    65   1
    69    34    66   1
    70    34    67   1
    71    35    68   1
    72    35    69   1
    73    36    70   1
    74    36    71   1
    75    37    72   1
    76    38    73   1
    77    38    74   1
    78    40    75   1
    79    41    76   1
    80    44    77   1
    81    44    78   1
    82    45    79   1
    83    45    80   1
    84    46    81   1
    85    47    82   1
@<TRIPOS>SUBSTRUCTURE
     1  MOL      2

