@<TRIPOS>MOLECULE
3utu_ligand_049
    82    85
SMALL
GAST_HUCK
****
This file was generated by PARSER (from files_GN.cpp)

@<TRIPOS>ATOM
      1 S8         20.3221  -13.0539   26.1992 S.o2        1 MOL       0.0657
      2 CL         22.5931  -17.9294   25.8012 Cl          1 MOL      -0.0788
      3 C35        21.7212  -14.0312   25.8459 C.ar        1 MOL       0.0977
      4 C10        25.8888  -16.7620   26.0397 C.3         1 MOL       0.0596
      5 O9         25.0653  -16.4076   24.9141 O.3         1 MOL      -0.3203
      6 C5         23.9675  -15.6544   25.2469 C.ar        1 MOL       0.1052
      7 O1         19.4746  -13.6295   27.4168 O.2         1 MOL      -0.1516
      8 O10        20.8096  -11.6403   26.7416 O.2         1 MOL      -0.1516
      9 C7         22.9236  -13.4406   25.3955 C.ar        1 MOL      -0.0438
     10 C3         21.6458  -15.4331   25.9867 C.ar        1 MOL      -0.0300
     11 C6         24.0387  -14.2516   25.1001 C.ar        1 MOL      -0.0306
     12 C4         22.7543  -16.2451   25.6719 C.ar        1 MOL       0.0696
     13 C13        18.1391  -13.0648   22.8851 C.2         1 MOL       0.2048
     14 N11        19.3498  -12.7322   24.8602 N.am        1 MOL      -0.2244
     15 O14        17.0129  -12.6009   22.9963 O.2         1 MOL      -0.3945
     16 C15        16.9530  -17.9186   23.4637 C.3         1 MOL       0.0687
     17 C31        15.8494  -18.4632   24.3073 C.ar        1 MOL      -0.0116
     18 C32        14.6168  -18.8543   23.7433 C.ar        1 MOL      -0.0467
     19 C33        13.5756  -19.3440   24.5532 C.ar        1 MOL      -0.0334
     20 C44        13.7509  -19.4599   25.9473 C.ar        1 MOL       0.0883
     21 C8         14.9887  -19.0946   26.5186 C.ar        1 MOL      -0.0334
     22 C9         16.0289  -18.6093   25.7029 C.ar        1 MOL      -0.0467
     23 C40        12.7792  -19.8856   26.7004 C.1         1 MOL       0.0934
     24 N63        11.9182  -20.2540   27.3665 N.1         1 MOL      -0.3338
     25 C45        18.6869  -13.7275   24.0761 C.3         1 MOL       0.1430
     26 C12        17.6310  -14.5146   24.9171 C.3         1 MOL       0.0742
     27 C46        16.9449  -15.5601   24.1747 C.2         1 MOL       0.1821
     28 O22        15.7668  -15.3799   23.8320 O.2         1 MOL      -0.3967
     29 N14        17.5456  -16.7334   24.0002 N.am        1 MOL      -0.2739
     30 N15        18.8165  -12.8380   21.7420 N.am        1 MOL      -0.2500
     31 C16        18.2575  -12.1641   20.5884 C.3         1 MOL       0.1338
     32 C17        16.9932  -12.7139   20.0912 C.2         1 MOL       0.2037
     33 O18        16.9247  -13.9156   19.8561 O.2         1 MOL      -0.3944
     34 C34        19.3619  -12.2286   19.5015 C.3         1 MOL      -0.0104
     35 C1         20.6526  -12.3706   20.3125 C.3         1 MOL      -0.0281
     36 C2         20.2040  -13.1601   21.5558 C.3         1 MOL       0.0369
     37 N19        15.9411  -11.9176   19.9361 N.am        1 MOL      -0.2737
     38 C20        14.6301  -12.2778   19.4900 C.3         1 MOL       0.0645
     39 C21        13.6453  -11.9771   20.5579 C.ar        1 MOL      -0.0210
     40 C26        13.5520  -12.8125   21.6932 C.ar        1 MOL      -0.0584
     41 C25        12.6400  -12.5218   22.7249 C.ar        1 MOL      -0.0633
     42 C24        11.7887  -11.3855   22.6659 C.ar        1 MOL       0.0188
     43 C27        10.8896  -11.0928   23.7023 C.cat       1 MOL       0.2318
     44 N29        10.3848  -12.0044   24.4415 N.pl3       1 MOL      -0.2729
     45 N28        10.5099   -9.9026   23.9739 N.pl3       1 MOL      -0.2729
     46 C23        11.8927  -10.5596   21.5183 C.ar        1 MOL      -0.0633
     47 C22        12.8022  -10.8473   20.4855 C.ar        1 MOL      -0.0584
     48 H1         26.7373  -17.3348   25.6627 H           1 MOL       0.0578
     49 H2         25.3425  -17.3883   26.7508 H           1 MOL       0.0578
     50 H3         26.2692  -15.8726   26.5515 H           1 MOL       0.0578
     51 H4         22.9968  -12.4267   25.2768 H           1 MOL       0.0610
     52 H5         20.7742  -15.8727   26.2967 H           1 MOL       0.0614
     53 H6         24.9052  -13.8150   24.7711 H           1 MOL       0.0542
     54 H7         19.4601  -11.8571   24.4638 H           1 MOL       0.1706
     55 H8         16.6180  -17.7182   22.4441 H           1 MOL       0.0704
     56 H9         17.7288  -18.6774   23.3922 H           1 MOL       0.0704
     57 H10        14.4592  -18.7751   22.7332 H           1 MOL       0.0584
     58 H11        12.6903  -19.6169   24.1123 H           1 MOL       0.0701
     59 H12        15.1432  -19.1604   27.5283 H           1 MOL       0.0701
     60 H13        16.9167  -18.3504   26.1390 H           1 MOL       0.0584
     61 H14        19.4409  -14.4541   23.7586 H           1 MOL       0.0779
     62 H15        16.9012  -13.7987   25.3195 H           1 MOL       0.0547
     63 H16        18.1242  -14.9755   25.7836 H           1 MOL       0.0547
     64 H17        18.4722  -16.8184   24.2999 H           1 MOL       0.1881
     65 H18        18.1230  -11.1110   20.8698 H           1 MOL       0.0802
     66 H19        19.3756  -11.3265   18.8864 H           1 MOL       0.0313
     67 H20        19.2533  -13.1074   18.8547 H           1 MOL       0.0313
     68 H21        21.0223  -11.3807   20.6084 H           1 MOL       0.0287
     69 H22        21.4329  -12.8975   19.7565 H           1 MOL       0.0287
     70 H23        20.3190  -14.2373   21.3938 H           1 MOL       0.0524
     71 H24        20.8173  -12.8542   22.4107 H           1 MOL       0.0524
     72 H25        16.0728  -10.9807   20.1561 H           1 MOL       0.1878
     73 H26        14.5499  -13.3304   19.2044 H           1 MOL       0.0683
     74 H27        14.4313  -11.6874   18.5929 H           1 MOL       0.0683
     75 H28        14.1597  -13.6307   21.7823 H           1 MOL       0.0557
     76 H29        12.6065  -13.1548   23.5251 H           1 MOL       0.0599
     77 H30         9.7792  -11.7760   25.1166 H           1 MOL       0.3180
     78 H31        10.6061  -12.9026   24.3107 H           1 MOL       0.3180
     79 H32        10.8241   -9.1768   23.4781 H           1 MOL       0.3180
     80 H33         9.8996   -9.7557   24.6682 H           1 MOL       0.3180
     81 H34        11.2966   -9.7311   21.4174 H           1 MOL       0.0599
     82 H35        12.8406  -10.2256   19.6707 H           1 MOL       0.0557
@<TRIPOS>BOND
     1     1     3   1
     2     1     7   2
     3     1     8   2
     4    14     1  am
     5    12     2   1
     6     3     9  ar
     7     3    10  ar
     8     5     4   1
     9     6     5   1
    10    11     6  ar
    11    12     6  ar
    12     9    11  ar
    13    10    12  ar
    14    13    15   2
    15    25    13   1
    16    13    30  am
    17    25    14   1
    18    16    17   1
    19    29    16   1
    20    17    18  ar
    21    17    22  ar
    22    18    19  ar
    23    19    20  ar
    24    21    20  ar
    25    20    23   1
    26    22    21  ar
    27    23    24   3
    28    26    25   1
    29    27    26   1
    30    27    28   2
    31    27    29  am
    32    30    31   1
    33    30    36   1
    34    31    32   1
    35    31    34   1
    36    32    33   2
    37    32    37  am
    38    34    35   1
    39    35    36   1
    40    37    38   1
    41    38    39   1
    42    39    40  ar
    43    39    47  ar
    44    40    41  ar
    45    41    42  ar
    46    42    43   1
    47    42    46  ar
    48    43    44  ar
    49    43    45  ar
    50    46    47  ar
    51     4    48   1
    52     4    49   1
    53     4    50   1
    54     9    51   1
    55    10    52   1
    56    11    53   1
    57    14    54   1
    58    16    55   1
    59    16    56   1
    60    18    57   1
    61    19    58   1
    62    21    59   1
    63    22    60   1
    64    25    61   1
    65    26    62   1
    66    26    63   1
    67    29    64   1
    68    31    65   1
    69    34    66   1
    70    34    67   1
    71    35    68   1
    72    35    69   1
    73    36    70   1
    74    36    71   1
    75    37    72   1
    76    38    73   1
    77    38    74   1
    78    40    75   1
    79    41    76   1
    80    44    77   1
    81    44    78   1
    82    45    79   1
    83    45    80   1
    84    46    81   1
    85    47    82   1
@<TRIPOS>SUBSTRUCTURE
     1  MOL      2

