@<TRIPOS>MOLECULE
3utu_ligand_011
    82    85
SMALL
GAST_HUCK
****
This file was generated by PARSER (from files_GN.cpp)

@<TRIPOS>ATOM
      1 S8         16.3682  -14.6347   15.3164 S.o2        1 MOL       0.0657
      2 CL         15.7689  -18.9113   18.5545 Cl          1 MOL      -0.0788
      3 C35        16.8914  -16.2104   15.8311 C.ar        1 MOL       0.0977
      4 C10        19.0044  -20.0517   18.1930 C.3         1 MOL       0.0596
      5 O9         18.1284  -20.0344   17.0531 O.3         1 MOL      -0.3203
      6 C5         17.7333  -18.7742   16.6878 C.ar        1 MOL       0.1052
      7 O1         16.7124  -14.4014   13.7792 O.2         1 MOL      -0.1516
      8 O10        14.7820  -14.5387   15.3972 O.2         1 MOL      -0.1516
      9 C7         17.9864  -16.8435   15.2077 C.ar        1 MOL      -0.0438
     10 C3         16.2227  -16.8630   16.8906 C.ar        1 MOL      -0.0300
     11 C6         18.3988  -18.1200   15.6300 C.ar        1 MOL      -0.0306
     12 C4         16.6324  -18.1441   17.3120 C.ar        1 MOL       0.0696
     13 C13        19.0006  -12.2219   16.9481 C.2         1 MOL       0.2048
     14 N11        16.9775  -13.4081   16.2989 N.am        1 MOL      -0.2244
     15 O14        20.1017  -11.9412   16.4876 O.2         1 MOL      -0.3945
     16 C15        15.0076  -11.6366   12.3989 C.3         1 MOL       0.0687
     17 C31        13.5293  -11.5041   12.4653 C.ar        1 MOL      -0.0116
     18 C32        12.8459  -10.5527   11.6664 C.ar        1 MOL      -0.0467
     19 C33        11.4476  -10.4389   11.7244 C.ar        1 MOL      -0.0334
     20 C44        10.6962  -11.2740   12.5788 C.ar        1 MOL       0.0883
     21 C8         11.3696  -12.2275   13.3768 C.ar        1 MOL      -0.0334
     22 C9         12.7696  -12.3365   13.3217 C.ar        1 MOL      -0.0467
     23 C40         9.4011  -11.1682   12.6129 C.1         1 MOL       0.0934
     24 N63         8.2586  -11.0761   12.6316 N.1         1 MOL      -0.3338
     25 C45        17.9836  -12.4719   15.9001 C.3         1 MOL       0.1430
     26 C12        17.3233  -11.1667   15.3425 C.3         1 MOL       0.0742
     27 C46        16.8645  -11.2617   13.9686 C.2         1 MOL       0.1821
     28 O22        17.6421  -10.9386   13.0651 O.2         1 MOL      -0.3967
     29 N14        15.5939  -11.5762   13.7008 N.am        1 MOL      -0.2739
     30 N15        18.9117  -12.2748   18.2969 N.am        1 MOL      -0.2500
     31 C16        17.7261  -12.4761   19.1005 C.3         1 MOL       0.1338
     32 C17        16.5944  -11.5861   18.8723 C.2         1 MOL       0.2037
     33 O18        16.6405  -10.7534   17.9731 O.2         1 MOL      -0.3944
     34 C34        18.2020  -12.3240   20.5711 C.3         1 MOL      -0.0104
     35 C1         19.6868  -12.6885   20.5214 C.3         1 MOL      -0.0281
     36 C2         20.1008  -12.2166   19.1229 C.3         1 MOL       0.0369
     37 N19        15.5103  -11.7306   19.6302 N.am        1 MOL      -0.2737
     38 C20        14.2419  -11.1025   19.4307 C.3         1 MOL       0.0645
     39 C21        13.4656  -11.0652   20.6955 C.ar        1 MOL      -0.0210
     40 C26        13.7696  -10.1301   21.7118 C.ar        1 MOL      -0.0584
     41 C25        12.9661  -10.0360   22.8676 C.ar        1 MOL      -0.0633
     42 C24        11.8585  -10.8995   23.0660 C.ar        1 MOL       0.0188
     43 C27        11.0031  -10.7775   24.1682 C.cat       1 MOL       0.2318
     44 N29        10.6383   -9.6431   24.6403 N.pl3       1 MOL      -0.2729
     45 N28        10.5066  -11.7991   24.7587 N.pl3       1 MOL      -0.2729
     46 C23        11.6026  -11.8702   22.0652 C.ar        1 MOL      -0.0633
     47 C22        12.3792  -11.9433   20.8954 C.ar        1 MOL      -0.0584
     48 H1         19.2193  -21.0925   18.4360 H           1 MOL       0.0578
     49 H2         18.5406  -19.5867   19.0667 H           1 MOL       0.0578
     50 H3         19.9491  -19.5512   17.9694 H           1 MOL       0.0578
     51 H4         18.4948  -16.3835   14.4513 H           1 MOL       0.0610
     52 H5         15.4312  -16.4119   17.3546 H           1 MOL       0.0614
     53 H6         19.1928  -18.5747   15.1688 H           1 MOL       0.0542
     54 H7         16.4172  -13.1550   17.0402 H           1 MOL       0.1706
     55 H8         15.4368  -10.8472   11.7762 H           1 MOL       0.0704
     56 H9         15.2588  -12.5953   11.9402 H           1 MOL       0.0704
     57 H10        13.3657   -9.9472   11.0260 H           1 MOL       0.0584
     58 H11        10.9859   -9.7435   11.1298 H           1 MOL       0.0701
     59 H12        10.8450  -12.8550   13.9953 H           1 MOL       0.0701
     60 H13        13.2363  -13.0332   13.9119 H           1 MOL       0.0584
     61 H14        18.5215  -12.9463   15.0678 H           1 MOL       0.0779
     62 H15        18.0266  -10.3274   15.3997 H           1 MOL       0.0547
     63 H16        16.4698  -10.8984   15.9679 H           1 MOL       0.0547
     64 H17        15.0151  -11.7953   14.4572 H           1 MOL       0.1881
     65 H18        17.4189  -13.5177   18.9513 H           1 MOL       0.0802
     66 H19        17.6511  -12.9823   21.2499 H           1 MOL       0.0313
     67 H20        18.1082  -11.2908   20.9284 H           1 MOL       0.0313
     68 H21        19.8096  -13.7720   20.6082 H           1 MOL       0.0287
     69 H22        20.2620  -12.1924   21.3057 H           1 MOL       0.0287
     70 H23        20.4691  -11.1862   19.1555 H           1 MOL       0.0524
     71 H24        20.8999  -12.8684   18.7533 H           1 MOL       0.0524
     72 H25        15.5424  -12.4242   20.3166 H           1 MOL       0.1878
     73 H26        13.7222  -11.6823   18.6665 H           1 MOL       0.0683
     74 H27        14.3297  -10.0883   19.0421 H           1 MOL       0.0683
     75 H28        14.5569   -9.4850   21.5953 H           1 MOL       0.0557
     76 H29        13.2039   -9.3248   23.5648 H           1 MOL       0.0599
     77 H30        10.0158   -9.6095   25.3379 H           1 MOL       0.3180
     78 H31        10.9429   -8.8494   24.2544 H           1 MOL       0.3180
     79 H32        10.7234  -12.6648   24.4783 H           1 MOL       0.3180
     80 H33         9.8984  -11.6911   25.4582 H           1 MOL       0.3180
     81 H34        10.8140  -12.5124   22.1539 H           1 MOL       0.0599
     82 H35        12.1280  -12.6359   20.1848 H           1 MOL       0.0557
@<TRIPOS>BOND
     1     1     3   1
     2     1     7   2
     3     1     8   2
     4    14     1  am
     5    12     2   1
     6     3     9  ar
     7     3    10  ar
     8     5     4   1
     9     6     5   1
    10    11     6  ar
    11    12     6  ar
    12     9    11  ar
    13    10    12  ar
    14    13    15   2
    15    25    13   1
    16    13    30  am
    17    25    14   1
    18    16    17   1
    19    29    16   1
    20    17    18  ar
    21    17    22  ar
    22    18    19  ar
    23    19    20  ar
    24    21    20  ar
    25    20    23   1
    26    22    21  ar
    27    23    24   3
    28    26    25   1
    29    27    26   1
    30    27    28   2
    31    27    29  am
    32    30    31   1
    33    30    36   1
    34    31    32   1
    35    31    34   1
    36    32    33   2
    37    32    37  am
    38    34    35   1
    39    35    36   1
    40    37    38   1
    41    38    39   1
    42    39    40  ar
    43    39    47  ar
    44    40    41  ar
    45    41    42  ar
    46    42    43   1
    47    42    46  ar
    48    43    44  ar
    49    43    45  ar
    50    46    47  ar
    51     4    48   1
    52     4    49   1
    53     4    50   1
    54     9    51   1
    55    10    52   1
    56    11    53   1
    57    14    54   1
    58    16    55   1
    59    16    56   1
    60    18    57   1
    61    19    58   1
    62    21    59   1
    63    22    60   1
    64    25    61   1
    65    26    62   1
    66    26    63   1
    67    29    64   1
    68    31    65   1
    69    34    66   1
    70    34    67   1
    71    35    68   1
    72    35    69   1
    73    36    70   1
    74    36    71   1
    75    37    72   1
    76    38    73   1
    77    38    74   1
    78    40    75   1
    79    41    76   1
    80    44    77   1
    81    44    78   1
    82    45    79   1
    83    45    80   1
    84    46    81   1
    85    47    82   1
@<TRIPOS>SUBSTRUCTURE
     1  MOL      2

