@<TRIPOS>MOLECULE
3utu_ligand_055
    82    85
SMALL
GAST_HUCK
****
This file was generated by PARSER (from files_GN.cpp)

@<TRIPOS>ATOM
      1 S8         20.2900  -16.6443   23.1557 S.o2        1 MOL       0.0657
      2 CL         23.2860  -12.5358   24.9716 Cl          1 MOL      -0.0788
      3 C35        20.4217  -15.1329   24.0016 C.ar        1 MOL       0.0977
      4 C10        20.8283  -11.8435   27.6243 C.3         1 MOL       0.0596
      5 O9         20.6981  -11.5775   26.2138 O.3         1 MOL      -0.3203
      6 C5         20.6241  -12.7223   25.4647 C.ar        1 MOL       0.1052
      7 O1         21.5070  -16.9047   22.1647 O.2         1 MOL      -0.1516
      8 O10        20.3653  -17.8332   24.2088 O.2         1 MOL      -0.1516
      9 C7         19.2731  -14.5516   24.5721 C.ar        1 MOL      -0.0438
     10 C3         21.6679  -14.4823   24.1282 C.ar        1 MOL      -0.0300
     11 C6         19.3733  -13.3478   25.2884 C.ar        1 MOL      -0.0306
     12 C4         21.7697  -13.2783   24.8516 C.ar        1 MOL       0.0696
     13 C13        18.1583  -14.8204   21.2084 C.2         1 MOL       0.2048
     14 N11        18.8265  -16.8035   22.3338 N.am        1 MOL      -0.2244
     15 O14        17.0957  -14.6656   21.8003 O.2         1 MOL      -0.3945
     16 C15        19.4658  -20.3645   19.7976 C.3         1 MOL       0.0687
     17 C31        20.1703  -20.5826   18.5066 C.ar        1 MOL      -0.0116
     18 C32        21.3794  -21.3165   18.4499 C.ar        1 MOL      -0.0467
     19 C33        22.0247  -21.5504   17.2202 C.ar        1 MOL      -0.0334
     20 C44        21.4777  -21.0399   16.0236 C.ar        1 MOL       0.0883
     21 C8         20.2695  -20.3132   16.0677 C.ar        1 MOL      -0.0334
     22 C9         19.6174  -20.1000   17.2962 C.ar        1 MOL      -0.0467
     23 C40        22.0743  -21.2404   14.8810 C.1         1 MOL       0.0934
     24 N63        22.5971  -21.4162   13.8756 N.1         1 MOL      -0.3338
     25 C45        18.6018  -16.2158   21.0513 C.3         1 MOL       0.1430
     26 C12        17.5888  -17.0955   20.2498 C.3         1 MOL       0.0742
     27 C46        17.8702  -18.5279   20.2351 C.2         1 MOL       0.1821
     28 O22        16.9361  -19.2971   20.4524 O.2         1 MOL      -0.3967
     29 N14        19.0866  -18.9905   19.9679 N.am        1 MOL      -0.2739
     30 N15        18.8147  -13.7176   20.7901 N.am        1 MOL      -0.2500
     31 C16        18.2674  -12.3744   20.8457 C.3         1 MOL       0.1338
     32 C17        16.9885  -12.1799   20.1621 C.2         1 MOL       0.2037
     33 O18        16.6810  -12.9359   19.2498 O.2         1 MOL      -0.3944
     34 C34        19.3539  -11.4666   20.2124 C.3         1 MOL      -0.0104
     35 C1         20.6452  -12.2682   20.3957 C.3         1 MOL      -0.0281
     36 C2         20.1579  -13.7208   20.2901 C.3         1 MOL       0.0369
     37 N19        16.2230  -11.1460   20.4913 N.am        1 MOL      -0.2737
     38 C20        14.9466  -10.8166   19.9283 C.3         1 MOL       0.0645
     39 C21        13.9082  -10.8267   20.9884 C.ar        1 MOL      -0.0210
     40 C26        13.9200   -9.8366   21.9923 C.ar        1 MOL      -0.0584
     41 C25        12.9602   -9.8409   23.0204 C.ar        1 MOL      -0.0633
     42 C24        11.9513  -10.8378   23.0863 C.ar        1 MOL       0.0188
     43 C27        10.9873  -10.8378   24.0988 C.cat       1 MOL       0.2318
     44 N29        10.6025   -9.7517   24.6728 N.pl3       1 MOL      -0.2729
     45 N28        10.4058  -11.9044   24.5079 N.pl3       1 MOL      -0.2729
     46 C23        11.9492  -11.8268   22.0672 C.ar        1 MOL      -0.0633
     47 C22        12.9003  -11.8163   21.0297 C.ar        1 MOL      -0.0584
     48 H1         20.8888  -10.8908   28.1487 H           1 MOL       0.0578
     49 H2         21.7376  -12.4102   27.8425 H           1 MOL       0.0578
     50 H3         19.9633  -12.3877   28.0150 H           1 MOL       0.0578
     51 H4         18.3574  -15.0012   24.4797 H           1 MOL       0.0610
     52 H5         22.5037  -14.8899   23.7024 H           1 MOL       0.0614
     53 H6         18.5348  -12.9395   25.7006 H           1 MOL       0.0542
     54 H7         18.0610  -17.1351   22.8282 H           1 MOL       0.1706
     55 H8         20.1047  -20.6370   20.6415 H           1 MOL       0.0704
     56 H9         18.6027  -21.0317   19.8157 H           1 MOL       0.0704
     57 H10        21.7948  -21.6975   19.3049 H           1 MOL       0.0584
     58 H11        22.8926  -22.0973   17.2099 H           1 MOL       0.0701
     59 H12        19.8466  -19.9379   15.2136 H           1 MOL       0.0701
     60 H13        18.7409  -19.5738   17.2975 H           1 MOL       0.0584
     61 H14        19.5287  -16.2548   20.4770 H           1 MOL       0.0779
     62 H15        17.5866  -16.7555   19.2116 H           1 MOL       0.0547
     63 H16        16.5767  -16.9311   20.6380 H           1 MOL       0.0547
     64 H17        19.7996  -18.3398   19.8528 H           1 MOL       0.1881
     65 H18        18.1531  -12.1050   21.9032 H           1 MOL       0.0802
     66 H19        19.4104  -10.4852   20.6949 H           1 MOL       0.0313
     67 H20        19.1840  -11.3240   19.1403 H           1 MOL       0.0313
     68 H21        21.0683  -12.0811   21.3887 H           1 MOL       0.0287
     69 H22        21.3917  -12.0279   19.6340 H           1 MOL       0.0287
     70 H23        20.1649  -14.0504   19.2491 H           1 MOL       0.0524
     71 H24        20.8193  -14.3553   20.8797 H           1 MOL       0.0524
     72 H25        16.5575  -10.5503   21.1844 H           1 MOL       0.1878
     73 H26        14.6688  -11.4858   19.1092 H           1 MOL       0.0683
     74 H27        15.0129   -9.8145   19.5094 H           1 MOL       0.0683
     75 H28        14.6336   -9.1011   21.9744 H           1 MOL       0.0557
     76 H29        13.0285   -9.1176   23.7404 H           1 MOL       0.0599
     77 H30         9.9452   -9.7790   25.3350 H           1 MOL       0.3180
     78 H31        10.9656   -8.9303   24.4191 H           1 MOL       0.3180
     79 H32        10.6224  -12.7424   24.1518 H           1 MOL       0.3180
     80 H33         9.7589  -11.8515   25.1789 H           1 MOL       0.3180
     81 H34        11.2382  -12.5606   22.0554 H           1 MOL       0.0599
     82 H35        12.8588  -12.5412   20.3070 H           1 MOL       0.0557
@<TRIPOS>BOND
     1     1     3   1
     2     1     7   2
     3     1     8   2
     4    14     1  am
     5    12     2   1
     6     3     9  ar
     7     3    10  ar
     8     5     4   1
     9     6     5   1
    10    11     6  ar
    11    12     6  ar
    12     9    11  ar
    13    10    12  ar
    14    13    15   2
    15    25    13   1
    16    13    30  am
    17    25    14   1
    18    16    17   1
    19    29    16   1
    20    17    18  ar
    21    17    22  ar
    22    18    19  ar
    23    19    20  ar
    24    21    20  ar
    25    20    23   1
    26    22    21  ar
    27    23    24   3
    28    26    25   1
    29    27    26   1
    30    27    28   2
    31    27    29  am
    32    30    31   1
    33    30    36   1
    34    31    32   1
    35    31    34   1
    36    32    33   2
    37    32    37  am
    38    34    35   1
    39    35    36   1
    40    37    38   1
    41    38    39   1
    42    39    40  ar
    43    39    47  ar
    44    40    41  ar
    45    41    42  ar
    46    42    43   1
    47    42    46  ar
    48    43    44  ar
    49    43    45  ar
    50    46    47  ar
    51     4    48   1
    52     4    49   1
    53     4    50   1
    54     9    51   1
    55    10    52   1
    56    11    53   1
    57    14    54   1
    58    16    55   1
    59    16    56   1
    60    18    57   1
    61    19    58   1
    62    21    59   1
    63    22    60   1
    64    25    61   1
    65    26    62   1
    66    26    63   1
    67    29    64   1
    68    31    65   1
    69    34    66   1
    70    34    67   1
    71    35    68   1
    72    35    69   1
    73    36    70   1
    74    36    71   1
    75    37    72   1
    76    38    73   1
    77    38    74   1
    78    40    75   1
    79    41    76   1
    80    44    77   1
    81    44    78   1
    82    45    79   1
    83    45    80   1
    84    46    81   1
    85    47    82   1
@<TRIPOS>SUBSTRUCTURE
     1  MOL      2

