@<TRIPOS>MOLECULE
3utu_ligand_045
    82    85
SMALL
GAST_HUCK
****
This file was generated by PARSER (from files_GN.cpp)

@<TRIPOS>ATOM
      1 S8         16.6325  -16.6714   21.2915 S.o2        1 MOL       0.0657
      2 CL         15.6948  -21.9692   21.7234 Cl          1 MOL      -0.0788
      3 C35        15.5280  -17.9774   21.6162 C.ar        1 MOL       0.0977
      4 C10        12.6899  -21.6414   23.4903 C.3         1 MOL       0.0596
      5 O9         12.8232  -21.1493   22.1473 O.3         1 MOL      -0.3203
      6 C5         13.7285  -20.1294   22.0183 C.ar        1 MOL       0.1052
      7 O1         17.5256  -17.1188   20.0573 O.2         1 MOL      -0.1516
      8 O10        15.9332  -15.3495   20.7492 O.2         1 MOL      -0.1516
      9 C7         14.1599  -17.7279   21.8490 C.ar        1 MOL      -0.0438
     10 C3         15.9918  -19.3110   21.5865 C.ar        1 MOL      -0.0300
     11 C6         13.2648  -18.7979   22.0343 C.ar        1 MOL      -0.0306
     12 C4         15.0985  -20.3836   21.7868 C.ar        1 MOL       0.0696
     13 C13        17.7215  -13.9118   22.7379 C.2         1 MOL       0.2048
     14 N11        17.7444  -16.2988   22.5068 N.am        1 MOL      -0.2244
     15 O14        16.9564  -13.0377   23.1331 O.2         1 MOL      -0.3945
     16 C15        17.7230  -18.3274   26.8150 C.3         1 MOL       0.0687
     17 C31        16.3149  -18.7849   26.9810 C.ar        1 MOL      -0.0116
     18 C32        15.4049  -18.7306   25.8997 C.ar        1 MOL      -0.0467
     19 C33        14.0854  -19.1939   26.0413 C.ar        1 MOL      -0.0334
     20 C44        13.6543  -19.7505   27.2636 C.ar        1 MOL       0.0883
     21 C8         14.5520  -19.8082   28.3519 C.ar        1 MOL      -0.0334
     22 C9         15.8684  -19.3279   28.2092 C.ar        1 MOL      -0.0467
     23 C40        12.4371  -20.2000   27.3860 C.1         1 MOL       0.0934
     24 N63        11.3647  -20.5998   27.4864 N.1         1 MOL      -0.3338
     25 C45        17.5684  -15.2081   23.4156 C.3         1 MOL       0.1430
     26 C12        18.4725  -15.2951   24.6878 C.3         1 MOL       0.0742
     27 C46        18.5717  -16.6362   25.2354 C.2         1 MOL       0.1821
     28 O22        19.3735  -17.4089   24.7133 O.2         1 MOL      -0.3967
     29 N14        17.7948  -17.0188   26.2427 N.am        1 MOL      -0.2739
     30 N15        18.5712  -13.6184   21.7282 N.am        1 MOL      -0.2500
     31 C16        18.5661  -12.3519   21.0267 C.3         1 MOL       0.1338
     32 C17        17.2814  -12.0290   20.4090 C.2         1 MOL       0.2037
     33 O18        16.7900  -12.8096   19.6021 O.2         1 MOL      -0.3944
     34 C34        19.6906  -12.4400   19.9651 C.3         1 MOL      -0.0104
     35 C1         20.5849  -13.5712   20.4747 C.3         1 MOL      -0.0281
     36 C2         19.6090  -14.4813   21.2367 C.3         1 MOL       0.0369
     37 N19        16.6338  -10.9371   20.7893 N.am        1 MOL      -0.2737
     38 C20        15.3657  -10.4696   20.3300 C.3         1 MOL       0.0645
     39 C21        14.3735  -10.5536   21.4299 C.ar        1 MOL      -0.0210
     40 C26        13.8111  -11.7936   21.7922 C.ar        1 MOL      -0.0584
     41 C25        12.8163  -11.8721   22.7862 C.ar        1 MOL      -0.0633
     42 C24        12.3427  -10.7150   23.4597 C.ar        1 MOL       0.0188
     43 C27        11.2801  -10.7734   24.3864 C.cat       1 MOL       0.2318
     44 N29        10.7471  -11.8678   24.7832 N.pl3       1 MOL      -0.2729
     45 N28        10.7340   -9.7311   24.8889 N.pl3       1 MOL      -0.2729
     46 C23        12.9631   -9.4807   23.1191 C.ar        1 MOL      -0.0633
     47 C22        13.9535   -9.3982   22.1224 C.ar        1 MOL      -0.0584
     48 H1         11.9540  -22.4458   23.4827 H           1 MOL       0.0578
     49 H2         12.3354  -20.8606   24.1690 H           1 MOL       0.0578
     50 H3         13.6320  -22.0487   23.8629 H           1 MOL       0.0578
     51 H4         13.7995  -16.7696   21.8675 H           1 MOL       0.0610
     52 H5         16.9803  -19.5040   21.4070 H           1 MOL       0.0614
     53 H6         12.2706  -18.6066   22.1750 H           1 MOL       0.0542
     54 H7         18.6338  -16.6750   22.4211 H           1 MOL       0.1706
     55 H8         18.2418  -19.0821   26.2134 H           1 MOL       0.0704
     56 H9         18.2342  -18.2794   27.7784 H           1 MOL       0.0704
     57 H10        15.6951  -18.3390   25.0002 H           1 MOL       0.0584
     58 H11        13.4461  -19.1162   25.2466 H           1 MOL       0.0701
     59 H12        14.2603  -20.1938   29.2550 H           1 MOL       0.0701
     60 H13        16.5027  -19.3864   29.0109 H           1 MOL       0.0584
     61 H14        16.5416  -15.2969   23.7917 H           1 MOL       0.0779
     62 H15        18.0591  -14.6213   25.4451 H           1 MOL       0.0547
     63 H16        19.4806  -14.9292   24.4839 H           1 MOL       0.0547
     64 H17        17.1857  -16.3540   26.6034 H           1 MOL       0.1881
     65 H18        18.8489  -11.5797   21.7515 H           1 MOL       0.0802
     66 H19        20.2467  -11.4993   19.8803 H           1 MOL       0.0313
     67 H20        19.3130  -12.7145   18.9724 H           1 MOL       0.0313
     68 H21        21.3454  -13.1738   21.1536 H           1 MOL       0.0287
     69 H22        21.0735  -14.1048   19.6518 H           1 MOL       0.0287
     70 H23        19.1816  -15.2246   20.5583 H           1 MOL       0.0524
     71 H24        20.1532  -14.9919   22.0284 H           1 MOL       0.0524
     72 H25        17.0612  -10.3895   21.4665 H           1 MOL       0.1878
     73 H26        14.9968  -11.0291   19.4661 H           1 MOL       0.0683
     74 H27        15.5131   -9.4392   20.0061 H           1 MOL       0.0683
     75 H28        14.1044  -12.6506   21.3156 H           1 MOL       0.0557
     76 H29        12.4356  -12.7974   22.9991 H           1 MOL       0.0599
     77 H30        10.0229  -11.8392   25.3776 H           1 MOL       0.3180
     78 H31        11.0458  -12.7006   24.4797 H           1 MOL       0.3180
     79 H32        11.0329   -8.8771   24.6664 H           1 MOL       0.3180
     80 H33        10.0078   -9.8180   25.4694 H           1 MOL       0.3180
     81 H34        12.6865   -8.6068   23.5698 H           1 MOL       0.0599
     82 H35        14.3520   -8.4839   21.8957 H           1 MOL       0.0557
@<TRIPOS>BOND
     1     1     3   1
     2     1     7   2
     3     1     8   2
     4    14     1  am
     5    12     2   1
     6     3     9  ar
     7     3    10  ar
     8     5     4   1
     9     6     5   1
    10    11     6  ar
    11    12     6  ar
    12     9    11  ar
    13    10    12  ar
    14    13    15   2
    15    25    13   1
    16    13    30  am
    17    25    14   1
    18    16    17   1
    19    29    16   1
    20    17    18  ar
    21    17    22  ar
    22    18    19  ar
    23    19    20  ar
    24    21    20  ar
    25    20    23   1
    26    22    21  ar
    27    23    24   3
    28    26    25   1
    29    27    26   1
    30    27    28   2
    31    27    29  am
    32    30    31   1
    33    30    36   1
    34    31    32   1
    35    31    34   1
    36    32    33   2
    37    32    37  am
    38    34    35   1
    39    35    36   1
    40    37    38   1
    41    38    39   1
    42    39    40  ar
    43    39    47  ar
    44    40    41  ar
    45    41    42  ar
    46    42    43   1
    47    42    46  ar
    48    43    44  ar
    49    43    45  ar
    50    46    47  ar
    51     4    48   1
    52     4    49   1
    53     4    50   1
    54     9    51   1
    55    10    52   1
    56    11    53   1
    57    14    54   1
    58    16    55   1
    59    16    56   1
    60    18    57   1
    61    19    58   1
    62    21    59   1
    63    22    60   1
    64    25    61   1
    65    26    62   1
    66    26    63   1
    67    29    64   1
    68    31    65   1
    69    34    66   1
    70    34    67   1
    71    35    68   1
    72    35    69   1
    73    36    70   1
    74    36    71   1
    75    37    72   1
    76    38    73   1
    77    38    74   1
    78    40    75   1
    79    41    76   1
    80    44    77   1
    81    44    78   1
    82    45    79   1
    83    45    80   1
    84    46    81   1
    85    47    82   1
@<TRIPOS>SUBSTRUCTURE
     1  MOL      2

