@<TRIPOS>MOLECULE
3utu_ligand_057
    82    85
SMALL
GAST_HUCK
****
This file was generated by PARSER (from files_GN.cpp)

@<TRIPOS>ATOM
      1 S8         18.5050  -15.0495   25.0938 S.o2        1 MOL       0.0657
      2 CL         19.0646  -20.2850   26.3200 Cl          1 MOL      -0.0788
      3 C35        18.5316  -16.3227   26.2857 C.ar        1 MOL       0.0977
      4 C10        17.2908  -19.8659   29.5446 C.3         1 MOL       0.0596
      5 O9         18.5929  -19.3959   29.1522 O.3         1 MOL      -0.3203
      6 C5         18.5616  -18.4082   28.2048 C.ar        1 MOL       0.1052
      7 O1         18.5921  -13.5900   25.7218 O.2         1 MOL      -0.1516
      8 O10        19.8501  -15.2010   24.2553 O.2         1 MOL      -0.1516
      9 C7         18.3515  -16.0326   27.6539 C.ar        1 MOL      -0.0438
     10 C3         18.7455  -17.6588   25.8832 C.ar        1 MOL      -0.0300
     11 C6         18.3690  -17.0690   28.6045 C.ar        1 MOL      -0.0306
     12 C4         18.7733  -18.6984   26.8373 C.ar        1 MOL       0.0696
     13 C13        17.5097  -13.8484   22.0849 C.2         1 MOL       0.2048
     14 N11        17.1755  -15.1562   24.0572 N.am        1 MOL      -0.2244
     15 O14        16.7781  -12.9568   22.5145 O.2         1 MOL      -0.3945
     16 C15        15.7719  -19.4543   23.0345 C.3         1 MOL       0.0687
     17 C31        14.7847  -19.5326   24.1510 C.ar        1 MOL      -0.0116
     18 C32        15.2089  -19.3850   25.4914 C.ar        1 MOL      -0.0467
     19 C33        14.2773  -19.4127   26.5453 C.ar        1 MOL      -0.0334
     20 C44        12.9007  -19.5705   26.2772 C.ar        1 MOL       0.0883
     21 C8         12.4679  -19.7068   24.9432 C.ar        1 MOL      -0.0334
     22 C9         13.4029  -19.7000   23.8914 C.ar        1 MOL      -0.0467
     23 C40        12.0312  -19.5826   27.2455 C.1         1 MOL       0.0934
     24 N63        11.2616  -19.5991   28.0979 N.1         1 MOL      -0.3338
     25 C45        17.2914  -15.2045   22.6310 C.3         1 MOL       0.1430
     26 C12        16.0184  -15.8238   21.9681 C.3         1 MOL       0.0742
     27 C46        15.4961  -17.0633   22.5348 C.2         1 MOL       0.1821
     28 O22        14.2879  -17.1071   22.7546 O.2         1 MOL      -0.3967
     29 N14        16.2574  -18.1287   22.7545 N.am        1 MOL      -0.2739
     30 N15        18.3031  -13.5428   21.0370 N.am        1 MOL      -0.2500
     31 C16        18.2756  -12.2895   20.2792 C.3         1 MOL       0.1338
     32 C17        17.0318  -11.8245   19.6383 C.2         1 MOL       0.2037
     33 O18        17.1231  -10.9489   18.7726 O.2         1 MOL      -0.3944
     34 C34        19.4046  -12.4839   19.2210 C.3         1 MOL      -0.0104
     35 C1         20.3543  -13.5053   19.8419 C.3         1 MOL      -0.0281
     36 C2         19.3966  -14.3934   20.6465 C.3         1 MOL       0.0369
     37 N19        15.8188  -12.3068   19.9602 N.am        1 MOL      -0.2737
     38 C20        14.5318  -11.9136   19.4335 C.3         1 MOL       0.0645
     39 C21        13.5651  -11.5968   20.5299 C.ar        1 MOL      -0.0210
     40 C26        13.4411  -12.4854   21.6218 C.ar        1 MOL      -0.0584
     41 C25        12.5382  -12.2266   22.6661 C.ar        1 MOL      -0.0633
     42 C24        11.6891  -11.0882   22.6522 C.ar        1 MOL       0.0188
     43 C27        10.7987  -10.8542   23.7141 C.cat       1 MOL       0.2318
     44 N29        10.2830  -11.8055   24.3991 N.pl3       1 MOL      -0.2729
     45 N28        10.4539   -9.6821   24.0873 N.pl3       1 MOL      -0.2729
     46 C23        11.7983  -10.2130   21.5356 C.ar        1 MOL      -0.0633
     47 C22        12.7260  -10.4561   20.5011 C.ar        1 MOL      -0.0584
     48 H1         17.4209  -20.6508   30.2900 H           1 MOL       0.0578
     49 H2         16.7483  -20.2892   28.6960 H           1 MOL       0.0578
     50 H3         16.6980  -19.0662   29.9948 H           1 MOL       0.0578
     51 H4         18.2024  -15.0694   27.9676 H           1 MOL       0.0610
     52 H5         18.8825  -17.8763   24.8905 H           1 MOL       0.0614
     53 H6         18.2496  -16.8446   29.5939 H           1 MOL       0.0542
     54 H7         16.3134  -14.9077   24.4242 H           1 MOL       0.1706
     55 H8         15.3332  -19.8337   22.1051 H           1 MOL       0.0704
     56 H9         16.6296  -20.0918   23.2629 H           1 MOL       0.0704
     57 H10        16.2002  -19.2565   25.7035 H           1 MOL       0.0584
     58 H11        14.6147  -19.3056   27.5037 H           1 MOL       0.0701
     59 H12        11.4737  -19.8009   24.7185 H           1 MOL       0.0701
     60 H13        13.0642  -19.7938   22.9309 H           1 MOL       0.0584
     61 H14        18.1230  -15.8743   22.3965 H           1 MOL       0.0779
     62 H15        16.2528  -16.0345   20.9176 H           1 MOL       0.0547
     63 H16        15.2157  -15.0661   21.9841 H           1 MOL       0.0547
     64 H17        17.2186  -18.0308   22.6188 H           1 MOL       0.1881
     65 H18        18.5945  -11.5025   20.9695 H           1 MOL       0.0802
     66 H19        19.9244  -11.5486   18.9991 H           1 MOL       0.0313
     67 H20        19.0046  -12.8954   18.2904 H           1 MOL       0.0313
     68 H21        21.0624  -12.9985   20.5075 H           1 MOL       0.0287
     69 H22        20.9074  -14.0693   19.0897 H           1 MOL       0.0287
     70 H23        19.0275  -15.2231   20.0364 H           1 MOL       0.0524
     71 H24        19.9500  -14.7862   21.5024 H           1 MOL       0.0524
     72 H25        15.8146  -13.0238   20.6239 H           1 MOL       0.1878
     73 H26        14.1391  -12.7728   18.8788 H           1 MOL       0.0683
     74 H27        14.6053  -11.0710   18.7250 H           1 MOL       0.0683
     75 H28        14.0109  -13.3380   21.6695 H           1 MOL       0.0557
     76 H29        12.5171  -12.8884   23.4465 H           1 MOL       0.0599
     77 H30         9.6963  -11.6163   25.0995 H           1 MOL       0.3180
     78 H31        10.4636  -12.7002   24.1958 H           1 MOL       0.3180
     79 H32        10.7862   -8.9232   23.6561 H           1 MOL       0.3180
     80 H33         9.8662   -9.5747   24.8078 H           1 MOL       0.3180
     81 H34        11.1902   -9.3874   21.4530 H           1 MOL       0.0599
     82 H35        12.7716   -9.7995   19.7141 H           1 MOL       0.0557
@<TRIPOS>BOND
     1     1     3   1
     2     1     7   2
     3     1     8   2
     4    14     1  am
     5    12     2   1
     6     3     9  ar
     7     3    10  ar
     8     5     4   1
     9     6     5   1
    10    11     6  ar
    11    12     6  ar
    12     9    11  ar
    13    10    12  ar
    14    13    15   2
    15    25    13   1
    16    13    30  am
    17    25    14   1
    18    16    17   1
    19    29    16   1
    20    17    18  ar
    21    17    22  ar
    22    18    19  ar
    23    19    20  ar
    24    21    20  ar
    25    20    23   1
    26    22    21  ar
    27    23    24   3
    28    26    25   1
    29    27    26   1
    30    27    28   2
    31    27    29  am
    32    30    31   1
    33    30    36   1
    34    31    32   1
    35    31    34   1
    36    32    33   2
    37    32    37  am
    38    34    35   1
    39    35    36   1
    40    37    38   1
    41    38    39   1
    42    39    40  ar
    43    39    47  ar
    44    40    41  ar
    45    41    42  ar
    46    42    43   1
    47    42    46  ar
    48    43    44  ar
    49    43    45  ar
    50    46    47  ar
    51     4    48   1
    52     4    49   1
    53     4    50   1
    54     9    51   1
    55    10    52   1
    56    11    53   1
    57    14    54   1
    58    16    55   1
    59    16    56   1
    60    18    57   1
    61    19    58   1
    62    21    59   1
    63    22    60   1
    64    25    61   1
    65    26    62   1
    66    26    63   1
    67    29    64   1
    68    31    65   1
    69    34    66   1
    70    34    67   1
    71    35    68   1
    72    35    69   1
    73    36    70   1
    74    36    71   1
    75    37    72   1
    76    38    73   1
    77    38    74   1
    78    40    75   1
    79    41    76   1
    80    44    77   1
    81    44    78   1
    82    45    79   1
    83    45    80   1
    84    46    81   1
    85    47    82   1
@<TRIPOS>SUBSTRUCTURE
     1  MOL      2

