@<TRIPOS>MOLECULE
3zso_ligand_045
    78    82
SMALL
GAST_HUCK
****
This file was generated by PARSER (from files_GN.cpp)

@<TRIPOS>ATOM
      1 C1         -5.5154   44.5702    2.5811 C.ar        1 O2N      -0.0630
      2 C2         -5.5773   45.9402    2.2816 C.ar        1 O2N      -0.0640
      3 C3         -6.2437   43.6480    1.8102 C.ar        1 O2N      -0.0483
      4 C4         -6.3729   46.3895    1.2145 C.ar        1 O2N      -0.0493
      5 C5         -9.8349   49.0068    1.9222 C.ar        1 O2N      -0.0712
      6 C6         -9.1519   40.1541   -2.1809 C.ar        1 O2N      -0.0648
      7 C7         -8.2462   39.6780    0.0150 C.ar        1 O2N      -0.0648
      8 C8        -12.1139   41.9736   -1.0856 C.ar        1 O2N      -0.0648
      9 C9        -10.3841   43.3191   -2.1158 C.ar        1 O2N      -0.0648
     10 C10       -10.4025   50.1636    2.4797 C.ar        1 O2N      -0.0449
     11 C11        -8.5336   39.0030   -2.6904 C.ar        1 O2N      -0.0392
     12 C12        -7.6236   38.5233   -0.4984 C.ar        1 O2N      -0.0392
     13 C13       -13.0678   42.5240   -1.9615 C.ar        1 O2N      -0.0392
     14 C14       -11.3363   43.8790   -2.9896 C.ar        1 O2N      -0.0392
     15 C15        -7.0533   44.0903    0.7360 C.ar        1 O2N       0.0566
     16 C16       -12.0678   48.0977    1.4389 C.ar        1 O2N       0.0376
     17 C17        -9.0322   40.5145   -0.8171 C.ar        1 O2N      -0.0192
     18 C18       -10.7557   42.3778   -1.1210 C.ar        1 O2N      -0.0192
     19 C19        -7.1412   45.4853    0.4418 C.ar        1 O2N       0.0220
     20 C20       -10.6418   47.9733    1.3714 C.ar        1 O2N      -0.0032
     21 C21       -11.7949   50.2829    2.5083 C.ar        1 O2N       0.1200
     22 C22       -12.6071   49.2754    2.0119 C.ar        1 O2N       0.1327
     23 C23        -7.7593   38.1698   -1.8570 C.ar        1 O2N       0.0839
     24 C24       -12.6864   43.4912   -2.9078 C.ar        1 O2N       0.0839
     25 C25       -11.4802   49.2439   -1.4505 C.2         1 O2N      -0.1125
     26 C26       -10.1573   49.0906   -1.3156 C.2         1 O2N      -0.0447
     27 C27        -7.7055   43.1333   -0.0148 C.2         1 O2N       0.2037
     28 C28       -12.9733   47.1152    0.9691 C.2         1 O2N       0.0515
     29 C29       -13.8303   50.9797    2.6021 C.3         1 O2N       0.1864
     30 C30        -6.7296   36.8204   -3.6093 C.3         1 O2N       0.0579
     31 C31       -13.9971   45.3205   -3.5849 C.3         1 O2N       0.0579
     32 C32        -7.9920   46.0517   -0.6543 C.3         1 O2N       0.0086
     33 C33        -9.9142   46.8200    0.7571 C.3         1 O2N       0.0003
     34 C34        -9.4594   47.8359   -1.5359 C.3         1 O2N      -0.0011
     35 C35        -9.7395   41.7039   -0.2306 C.3         1 O2N       0.0982
     36 N36        -8.8701   42.6593    0.4077 N.am        1 O2N      -0.2653
     37 N37        -8.8931   47.2030   -0.2896 N.4         1 O2N       0.2715
     38 O38       -14.0626   46.7609    1.6907 O.co2       1 O2N      -0.5668
     39 O39        -7.1890   42.7883   -1.0696 O.2         1 O2N      -0.3883
     40 O40       -12.9340   46.6867   -0.3113 O.co2       1 O2N      -0.5668
     41 O41       -12.4937   51.3188    3.0041 O.3         1 O2N      -0.2947
     42 O42       -13.9069   49.6208    2.1282 O.3         1 O2N      -0.2890
     43 O43        -7.2157   36.9734   -2.2631 O.3         1 O2N      -0.3255
     44 O44       -13.6217   43.9509   -3.7928 O.3         1 O2N      -0.3255
     45 H1         -4.9305   44.2442    3.3557 H           1 O2N       0.0572
     46 H2         -5.0408   46.6099    2.8362 H           1 O2N       0.0635
     47 H3         -6.1620   42.6522    2.0333 H           1 O2N       0.0651
     48 H4         -6.3917   47.3905    1.0097 H           1 O2N       0.0570
     49 H5         -8.8136   48.9370    1.9061 H           1 O2N       0.0445
     50 H6         -9.7062   40.7212   -2.8215 H           1 O2N       0.0534
     51 H7         -8.1368   39.8962    1.0119 H           1 O2N       0.0534
     52 H8        -12.4132   41.2301   -0.4477 H           1 O2N       0.0534
     53 H9         -9.4025   43.5647   -2.2555 H           1 O2N       0.0534
     54 H10        -9.8122   50.9152    2.8384 H           1 O2N       0.0514
     55 H11        -8.6645   38.7680   -3.6727 H           1 O2N       0.0526
     56 H12        -7.0828   37.9241    0.1313 H           1 O2N       0.0526
     57 H13       -14.0373   42.2002   -1.9192 H           1 O2N       0.0526
     58 H14       -11.0414   44.5507   -3.7015 H           1 O2N       0.0526
     59 H15       -11.9156   50.1014   -1.2049 H           1 O2N       0.0292
     60 H16       -12.0599   48.4909   -1.7293 H           1 O2N       0.0292
     61 H17        -9.6283   49.8729   -1.0058 H           1 O2N       0.0725
     62 H18       -14.1431   51.6611    1.8056 H           1 O2N       0.0973
     63 H19       -14.5043   51.1115    3.4516 H           1 O2N       0.0973
     64 H20        -6.2632   35.8403   -3.6983 H           1 O2N       0.0575
     65 H21        -5.9832   37.5765   -3.8544 H           1 O2N       0.0575
     66 H22        -7.5478   36.8707   -4.3268 H           1 O2N       0.0575
     67 H23       -14.7893   45.5653   -4.2944 H           1 O2N       0.0575
     68 H24       -13.1556   45.9915   -3.7697 H           1 O2N       0.0575
     69 H25       -14.3812   45.4826   -2.5737 H           1 O2N       0.0575
     70 H26        -8.6174   45.2812   -1.1037 H           1 O2N       0.0995
     71 H27        -7.2834   46.3690   -1.4265 H           1 O2N       0.0995
     72 H28       -10.5900   46.0772    0.3378 H           1 O2N       0.0966
     73 H29        -9.4215   46.3191    1.5923 H           1 O2N       0.0966
     74 H30        -8.6439   48.0858   -2.2193 H           1 O2N       0.0998
     75 H31       -10.0958   47.1129   -2.0569 H           1 O2N       0.0998
     76 H32       -10.3018   41.2897    0.6116 H           1 O2N       0.0837
     77 H33        -9.1679   42.9827    1.2739 H           1 O2N       0.1893
     78 H34        -8.2884   47.9116    0.1313 H           1 O2N       0.2082
@<TRIPOS>BOND
     1     1     2  ar
     2     3     1  ar
     3     4     2  ar
     4    15     3  ar
     5    19     4  ar
     6     5    10  ar
     7    20     5  ar
     8     6    11  ar
     9    17     6  ar
    10     7    12  ar
    11    17     7  ar
    12     8    13  ar
    13    18     8  ar
    14     9    14  ar
    15    18     9  ar
    16    10    21  ar
    17    11    23  ar
    18    12    23  ar
    19    13    24  ar
    20    14    24  ar
    21    15    19  ar
    22    27    15   1
    23    20    16  ar
    24    16    22  ar
    25    16    28   1
    26    35    17   1
    27    35    18   1
    28    19    32   1
    29    33    20   1
    30    22    21  ar
    31    21    41   1
    32    22    42   1
    33    23    43   1
    34    24    44   1
    35    26    25   2
    36    34    26   1
    37    36    27  am
    38    27    39   2
    39    28    38  ar
    40    28    40  ar
    41    29    41   1
    42    42    29   1
    43    43    30   1
    44    44    31   1
    45    32    37   1
    46    37    33   1
    47    37    34   1
    48    35    36   1
    49     1    45   1
    50     2    46   1
    51     3    47   1
    52     4    48   1
    53     5    49   1
    54     6    50   1
    55     7    51   1
    56     8    52   1
    57     9    53   1
    58    10    54   1
    59    11    55   1
    60    12    56   1
    61    13    57   1
    62    14    58   1
    63    25    59   1
    64    25    60   1
    65    26    61   1
    66    29    62   1
    67    29    63   1
    68    30    64   1
    69    30    65   1
    70    30    66   1
    71    31    67   1
    72    31    68   1
    73    31    69   1
    74    32    70   1
    75    32    71   1
    76    33    72   1
    77    33    73   1
    78    34    74   1
    79    34    75   1
    80    35    76   1
    81    36    77   1
    82    37    78   1
@<TRIPOS>SUBSTRUCTURE
     1  O2N      1

