@<TRIPOS>MOLECULE
3zso_ligand_080
    78    82
SMALL
GAST_HUCK
****
This file was generated by PARSER (from files_GN.cpp)

@<TRIPOS>ATOM
      1 C1        -21.5952   49.4178   -0.3222 C.ar        1 O2N      -0.0630
      2 C2        -21.5851   50.8034   -0.5566 C.ar        1 O2N      -0.0640
      3 C3        -20.9372   48.5520   -1.2107 C.ar        1 O2N      -0.0483
      4 C4        -20.9152   51.3228   -1.6810 C.ar        1 O2N      -0.0493
      5 C5        -17.4703   50.9174   -6.4674 C.ar        1 O2N      -0.0712
      6 C6        -18.0960   45.4325   -2.9509 C.ar        1 O2N      -0.0648
      7 C7        -17.5660   45.0229   -5.2869 C.ar        1 O2N      -0.0648
      8 C8        -20.6062   45.8122   -7.0451 C.ar        1 O2N      -0.0648
      9 C9        -19.4471   47.8753   -6.4544 C.ar        1 O2N      -0.0648
     10 C10       -16.6009   50.0940   -7.2060 C.ar        1 O2N      -0.0449
     11 C11       -16.8654   44.8649   -2.5713 C.ar        1 O2N      -0.0392
     12 C12       -16.3227   44.4819   -4.9139 C.ar        1 O2N      -0.0392
     13 C13       -20.7026   46.2487   -8.3813 C.ar        1 O2N      -0.0392
     14 C14       -19.5464   48.3204   -7.7827 C.ar        1 O2N      -0.0392
     15 C15       -20.2524   49.0526   -2.3515 C.ar        1 O2N       0.0566
     16 C16       -15.5626   52.1982   -5.6070 C.ar        1 O2N       0.0376
     17 C17       -18.4727   45.5312   -4.3161 C.ar        1 O2N      -0.0192
     18 C18       -19.9750   46.6193   -6.0590 C.ar        1 O2N      -0.0192
     19 C19       -20.2360   50.4667   -2.5872 C.ar        1 O2N       0.0220
     20 C20       -16.9787   51.9587   -5.6320 C.ar        1 O2N      -0.0032
     21 C21       -15.2212   50.3182   -7.1278 C.ar        1 O2N       0.1200
     22 C22       -14.7117   51.3550   -6.3589 C.ar        1 O2N       0.1327
     23 C23       -15.9557   44.4171   -3.5522 C.ar        1 O2N       0.0839
     24 C24       -20.1895   47.5140   -8.7526 C.ar        1 O2N       0.0839
     25 C25       -17.4328   52.9834   -0.7013 C.2         1 O2N      -0.1125
     26 C26       -17.5415   51.7579   -1.2453 C.2         1 O2N      -0.0447
     27 C27       -19.6006   48.1322   -3.1607 C.2         1 O2N       0.2037
     28 C28       -14.9612   53.2390   -4.8657 C.2         1 O2N       0.0515
     29 C29       -13.0772   50.3637   -7.3917 C.3         1 O2N       0.1864
     30 C30       -13.6877   44.8047   -3.0982 C.3         1 O2N       0.0579
     31 C31       -20.9360   49.1505  -10.2967 C.3         1 O2N       0.0579
     32 C32       -19.6132   51.1076   -3.7904 C.3         1 O2N       0.0086
     33 C33       -17.9611   52.7216   -4.7831 C.3         1 O2N       0.0003
     34 C34       -17.3586   51.5040   -2.6628 C.3         1 O2N      -0.0011
     35 C35       -19.8086   46.1299   -4.6491 C.3         1 O2N       0.0982
     36 N36       -20.2707   47.1355   -3.7275 N.am        1 O2N      -0.2653
     37 N37       -18.4655   52.0510   -3.5283 N.4         1 O2N       0.2715
     38 O38       -14.1142   52.9591   -3.8477 O.co2       1 O2N      -0.5668
     39 O39       -18.3922   48.2374   -3.3118 O.2         1 O2N      -0.3883
     40 O40       -15.0327   54.5187   -5.2978 O.co2       1 O2N      -0.5668
     41 O41       -14.2549   49.6211   -7.7540 O.3         1 O2N      -0.2947
     42 O42       -13.3674   51.4347   -6.4770 O.3         1 O2N      -0.2890
     43 O43       -14.7631   43.8532   -3.1773 O.3         1 O2N      -0.3255
     44 O44       -20.2499   47.8993  -10.0690 O.3         1 O2N      -0.3255
     45 H1        -22.0699   49.0422    0.5044 H           1 O2N       0.0572
     46 H2        -22.0585   51.4356    0.0921 H           1 O2N       0.0635
     47 H3        -20.9564   47.5424   -1.0130 H           1 O2N       0.0651
     48 H4        -20.9398   52.3366   -1.8413 H           1 O2N       0.0570
     49 H5        -18.4764   50.7468   -6.5514 H           1 O2N       0.0445
     50 H6        -18.7412   45.7440   -2.2142 H           1 O2N       0.0534
     51 H7        -17.7974   45.0468   -6.2810 H           1 O2N       0.0534
     52 H8        -20.9724   44.8840   -6.8032 H           1 O2N       0.0534
     53 H9        -18.9524   48.4625   -5.7761 H           1 O2N       0.0534
     54 H10       -16.9667   49.3440   -7.7980 H           1 O2N       0.0514
     55 H11       -16.6133   44.8012   -1.5808 H           1 O2N       0.0526
     56 H12       -15.6862   44.1205   -5.6346 H           1 O2N       0.0526
     57 H13       -21.1390   45.6506   -9.0913 H           1 O2N       0.0526
     58 H14       -19.1428   49.2320   -8.0391 H           1 O2N       0.0526
     59 H15       -17.5604   53.1062    0.2729 H           1 O2N       0.0292
     60 H16       -17.2442   53.7778   -1.2599 H           1 O2N       0.0292
     61 H17       -17.7181   50.9930   -0.6394 H           1 O2N       0.0725
     62 H18       -12.6328   50.7817   -8.2988 H           1 O2N       0.0973
     63 H19       -12.3558   49.6900   -6.9255 H           1 O2N       0.0973
     64 H20       -12.8021   44.2758   -2.7446 H           1 O2N       0.0575
     65 H21       -13.9101   45.6112   -2.3900 H           1 O2N       0.0575
     66 H22       -13.4608   45.2328   -4.0809 H           1 O2N       0.0575
     67 H23       -21.0207   49.3055  -11.3757 H           1 O2N       0.0575
     68 H24       -20.3760   49.9924   -9.8752 H           1 O2N       0.0575
     69 H25       -21.9478   49.1346   -9.8770 H           1 O2N       0.0575
     70 H26       -20.4180   51.6679   -4.2768 H           1 O2N       0.0995
     71 H27       -19.2941   50.3608   -4.5143 H           1 O2N       0.0995
     72 H28       -18.8000   53.0232   -5.4134 H           1 O2N       0.0966
     73 H29       -17.5271   53.6692   -4.4663 H           1 O2N       0.0966
     74 H30       -17.2510   50.4278   -2.8342 H           1 O2N       0.0998
     75 H31       -16.3981   51.9639   -2.9202 H           1 O2N       0.0998
     76 H32       -20.5085   45.3050   -4.4908 H           1 O2N       0.0837
     77 H33       -21.2261   47.1354   -3.5571 H           1 O2N       0.1893
     78 H34       -18.8778   52.8172   -2.9880 H           1 O2N       0.2082
@<TRIPOS>BOND
     1     1     2  ar
     2     3     1  ar
     3     4     2  ar
     4    15     3  ar
     5    19     4  ar
     6     5    10  ar
     7    20     5  ar
     8     6    11  ar
     9    17     6  ar
    10     7    12  ar
    11    17     7  ar
    12     8    13  ar
    13    18     8  ar
    14     9    14  ar
    15    18     9  ar
    16    10    21  ar
    17    11    23  ar
    18    12    23  ar
    19    13    24  ar
    20    14    24  ar
    21    15    19  ar
    22    27    15   1
    23    20    16  ar
    24    16    22  ar
    25    16    28   1
    26    35    17   1
    27    35    18   1
    28    19    32   1
    29    33    20   1
    30    22    21  ar
    31    21    41   1
    32    22    42   1
    33    23    43   1
    34    24    44   1
    35    26    25   2
    36    34    26   1
    37    36    27  am
    38    27    39   2
    39    28    38  ar
    40    28    40  ar
    41    29    41   1
    42    42    29   1
    43    43    30   1
    44    44    31   1
    45    32    37   1
    46    37    33   1
    47    37    34   1
    48    35    36   1
    49     1    45   1
    50     2    46   1
    51     3    47   1
    52     4    48   1
    53     5    49   1
    54     6    50   1
    55     7    51   1
    56     8    52   1
    57     9    53   1
    58    10    54   1
    59    11    55   1
    60    12    56   1
    61    13    57   1
    62    14    58   1
    63    25    59   1
    64    25    60   1
    65    26    61   1
    66    29    62   1
    67    29    63   1
    68    30    64   1
    69    30    65   1
    70    30    66   1
    71    31    67   1
    72    31    68   1
    73    31    69   1
    74    32    70   1
    75    32    71   1
    76    33    72   1
    77    33    73   1
    78    34    74   1
    79    34    75   1
    80    35    76   1
    81    36    77   1
    82    37    78   1
@<TRIPOS>SUBSTRUCTURE
     1  O2N      1

