@<TRIPOS>MOLECULE
3zso_ligand_044
    78    82
SMALL
GAST_HUCK
****
This file was generated by PARSER (from files_GN.cpp)

@<TRIPOS>ATOM
      1 C1        -20.7418   44.7177   -0.1156 C.ar        1 O2N      -0.0630
      2 C2        -21.9440   45.4226   -0.2692 C.ar        1 O2N      -0.0640
      3 C3        -19.7188   44.8781   -1.0578 C.ar        1 O2N      -0.0483
      4 C4        -22.1059   46.2906   -1.3591 C.ar        1 O2N      -0.0493
      5 C5        -19.8795   50.4496   -5.5451 C.ar        1 O2N      -0.0712
      6 C6        -14.9240   46.6533   -1.6090 C.ar        1 O2N      -0.0648
      7 C7        -14.2869   44.4845   -2.4959 C.ar        1 O2N      -0.0648
      8 C8        -16.2832   47.9315   -4.4574 C.ar        1 O2N      -0.0648
      9 C9        -15.6427   46.0373   -5.8262 C.ar        1 O2N      -0.0648
     10 C10       -19.6813   51.5025   -6.4552 C.ar        1 O2N      -0.0449
     11 C11       -13.8058   46.6387   -0.7563 C.ar        1 O2N      -0.0392
     12 C12       -13.1721   44.4662   -1.6381 C.ar        1 O2N      -0.0392
     13 C13       -16.0066   48.8038   -5.5266 C.ar        1 O2N      -0.0392
     14 C14       -15.3500   46.9129   -6.8910 C.ar        1 O2N      -0.0392
     15 C15       -19.8600   45.7446   -2.1762 C.ar        1 O2N       0.0566
     16 C16       -17.9716   51.1969   -4.1937 C.ar        1 O2N       0.0376
     17 C17       -15.1847   45.5851   -2.5011 C.ar        1 O2N      -0.0192
     18 C18       -16.0963   46.5326   -4.5816 C.ar        1 O2N      -0.0192
     19 C19       -21.0780   46.4891   -2.3187 C.ar        1 O2N       0.0220
     20 C20       -19.0487   50.2764   -4.4066 C.ar        1 O2N      -0.0032
     21 C21       -18.6240   52.3910   -6.2329 C.ar        1 O2N       0.1200
     22 C22       -17.7914   52.2454   -5.1311 C.ar        1 O2N       0.1327
     23 C23       -12.9320   45.5331   -0.7557 C.ar        1 O2N       0.0839
     24 C24       -15.5246   48.3071   -6.7587 C.ar        1 O2N       0.0839
     25 C25       -20.3806   51.2183   -0.2076 C.2         1 O2N      -0.1125
     26 C26       -20.4494   50.7382   -1.4569 C.2         1 O2N      -0.0447
     27 C27       -18.8237   45.7429   -3.1069 C.2         1 O2N       0.2037
     28 C28       -17.0507   51.1107   -3.1206 C.2         1 O2N       0.0515
     29 C29       -17.2437   54.0471   -6.2295 C.3         1 O2N       0.1864
     30 C30       -12.0952   45.3021    1.4315 C.3         1 O2N       0.0579
     31 C31       -15.0853   50.4951   -7.7738 C.3         1 O2N       0.0579
     32 C32       -21.3187   47.5293   -3.3750 C.3         1 O2N       0.0086
     33 C33       -19.2896   49.0397   -3.6004 C.3         1 O2N       0.0003
     34 C34       -20.9845   49.4183   -1.7598 C.3         1 O2N      -0.0011
     35 C35       -16.3609   45.6083   -3.4316 C.3         1 O2N       0.0982
     36 N36       -17.5635   45.8876   -2.6997 N.am        1 O2N      -0.2653
     37 N37       -20.7192   48.8961   -3.1442 N.4         1 O2N       0.2715
     38 O38       -15.7299   51.3459   -3.3062 O.co2       1 O2N      -0.5668
     39 O39       -19.0626   45.4494   -4.2705 O.2         1 O2N      -0.3883
     40 O40       -17.4752   50.9767   -1.8442 O.co2       1 O2N      -0.5668
     41 O41       -18.2671   53.4250   -7.0202 O.3         1 O2N      -0.2947
     42 O42       -16.8451   53.2126   -5.1286 O.3         1 O2N      -0.2890
     43 O43       -11.8190   45.5263    0.0384 O.3         1 O2N      -0.3255
     44 O44       -15.2161   49.0646   -7.8682 O.3         1 O2N      -0.3255
     45 H1        -20.6193   44.0805    0.6762 H           1 O2N       0.0572
     46 H2        -22.6959   45.3068    0.4150 H           1 O2N       0.0635
     47 H3        -18.8682   44.3236   -0.9223 H           1 O2N       0.0651
     48 H4        -22.9924   46.7972   -1.4304 H           1 O2N       0.0570
     49 H5        -20.6302   49.7832   -5.7452 H           1 O2N       0.0445
     50 H6        -15.5486   47.4611   -1.5630 H           1 O2N       0.0534
     51 H7        -14.4335   43.6994   -3.1314 H           1 O2N       0.0534
     52 H8        -16.6202   48.3330   -3.5858 H           1 O2N       0.0534
     53 H9        -15.5035   45.0321   -5.9686 H           1 O2N       0.0534
     54 H10       -20.2832   51.6088   -7.2756 H           1 O2N       0.0514
     55 H11       -13.6284   47.4338   -0.1397 H           1 O2N       0.0526
     56 H12       -12.5292   43.6723   -1.6659 H           1 O2N       0.0526
     57 H13       -16.1515   49.8050   -5.3917 H           1 O2N       0.0526
     58 H14       -15.0004   46.5256   -7.7696 H           1 O2N       0.0526
     59 H15       -19.9930   52.1177   -0.0318 H           1 O2N       0.0292
     60 H16       -20.6859   50.6777    0.5700 H           1 O2N       0.0292
     61 H17       -20.1330   51.3184   -2.2027 H           1 O2N       0.0725
     62 H18       -17.6206   54.9956   -5.8416 H           1 O2N       0.0973
     63 H19       -16.3773   54.2532   -6.8583 H           1 O2N       0.0973
     64 H20       -11.1457   45.2770    1.9669 H           1 O2N       0.0575
     65 H21       -12.5998   44.3479    1.5878 H           1 O2N       0.0575
     66 H22       -12.7004   46.1068    1.8541 H           1 O2N       0.0575
     67 H23       -14.7709   50.8764   -8.7480 H           1 O2N       0.0575
     68 H24       -14.3309   50.7715   -7.0291 H           1 O2N       0.0575
     69 H25       -16.0472   50.9510   -7.5188 H           1 O2N       0.0575
     70 H26       -22.3919   47.6982   -3.4837 H           1 O2N       0.0995
     71 H27       -21.0368   47.1331   -4.3478 H           1 O2N       0.0995
     72 H28       -18.6190   48.9511   -2.7516 H           1 O2N       0.0966
     73 H29       -19.0027   48.2268   -4.2680 H           1 O2N       0.0966
     74 H30       -22.0636   49.4974   -1.5981 H           1 O2N       0.0998
     75 H31       -20.6008   48.6917   -1.0359 H           1 O2N       0.0998
     76 H32       -16.5024   44.5974   -3.8311 H           1 O2N       0.0837
     77 H33       -17.4477   46.1447   -1.7718 H           1 O2N       0.1893
     78 H34       -21.2659   49.5116   -3.7489 H           1 O2N       0.2082
@<TRIPOS>BOND
     1     1     2  ar
     2     3     1  ar
     3     4     2  ar
     4    15     3  ar
     5    19     4  ar
     6     5    10  ar
     7    20     5  ar
     8     6    11  ar
     9    17     6  ar
    10     7    12  ar
    11    17     7  ar
    12     8    13  ar
    13    18     8  ar
    14     9    14  ar
    15    18     9  ar
    16    10    21  ar
    17    11    23  ar
    18    12    23  ar
    19    13    24  ar
    20    14    24  ar
    21    15    19  ar
    22    27    15   1
    23    20    16  ar
    24    16    22  ar
    25    16    28   1
    26    35    17   1
    27    35    18   1
    28    19    32   1
    29    33    20   1
    30    22    21  ar
    31    21    41   1
    32    22    42   1
    33    23    43   1
    34    24    44   1
    35    26    25   2
    36    34    26   1
    37    36    27  am
    38    27    39   2
    39    28    38  ar
    40    28    40  ar
    41    29    41   1
    42    42    29   1
    43    43    30   1
    44    44    31   1
    45    32    37   1
    46    37    33   1
    47    37    34   1
    48    35    36   1
    49     1    45   1
    50     2    46   1
    51     3    47   1
    52     4    48   1
    53     5    49   1
    54     6    50   1
    55     7    51   1
    56     8    52   1
    57     9    53   1
    58    10    54   1
    59    11    55   1
    60    12    56   1
    61    13    57   1
    62    14    58   1
    63    25    59   1
    64    25    60   1
    65    26    61   1
    66    29    62   1
    67    29    63   1
    68    30    64   1
    69    30    65   1
    70    30    66   1
    71    31    67   1
    72    31    68   1
    73    31    69   1
    74    32    70   1
    75    32    71   1
    76    33    72   1
    77    33    73   1
    78    34    74   1
    79    34    75   1
    80    35    76   1
    81    36    77   1
    82    37    78   1
@<TRIPOS>SUBSTRUCTURE
     1  O2N      1

