@<TRIPOS>MOLECULE
3zso_ligand_007
    78    82
SMALL
GAST_HUCK
****
This file was generated by PARSER (from files_GN.cpp)

@<TRIPOS>ATOM
      1 C1        -13.3802   45.0957   -3.5771 C.ar        1 O2N      -0.0630
      2 C2        -14.3150   44.1258   -3.9485 C.ar        1 O2N      -0.0640
      3 C3        -13.5855   45.8454   -2.4136 C.ar        1 O2N      -0.0483
      4 C4        -15.4771   43.9410   -3.1822 C.ar        1 O2N      -0.0493
      5 C5        -20.5668   47.2229   -1.2183 C.ar        1 O2N      -0.0712
      6 C6        -13.1076   50.5262   -0.7088 C.ar        1 O2N      -0.0648
      7 C7        -15.4947   50.9008   -0.4557 C.ar        1 O2N      -0.0648
      8 C8        -12.5589   47.3695    1.4092 C.ar        1 O2N      -0.0648
      9 C9        -13.1959   49.4235    2.5297 C.ar        1 O2N      -0.0648
     10 C10       -21.4567   48.1791   -0.6935 C.ar        1 O2N      -0.0449
     11 C11       -12.9825   51.7690   -1.3566 C.ar        1 O2N      -0.0392
     12 C12       -15.3725   52.1371   -1.1160 C.ar        1 O2N      -0.0392
     13 C13       -11.5727   47.1427    2.3883 C.ar        1 O2N      -0.0392
     14 C14       -12.1921   49.2150    3.4936 C.ar        1 O2N      -0.0392
     15 C15       -14.7535   45.6825   -1.6133 C.ar        1 O2N       0.0566
     16 C16       -21.3808   45.5520    0.3694 C.ar        1 O2N       0.0376
     17 C17       -14.3620   50.0810   -0.2229 C.ar        1 O2N      -0.0192
     18 C18       -13.4037   48.5085    1.4710 C.ar        1 O2N      -0.0192
     19 C19       -15.7343   44.7210   -2.0276 C.ar        1 O2N       0.0220
     20 C20       -20.4835   45.9075   -0.6881 C.ar        1 O2N      -0.0032
     21 C21       -22.2799   47.8166    0.3816 C.ar        1 O2N       0.1200
     22 C22       -22.2492   46.5315    0.8968 C.ar        1 O2N       0.1327
     23 C23       -14.1139   52.5803   -1.5716 C.ar        1 O2N       0.0839
     24 C24       -11.3728   48.0726    3.4286 C.ar        1 O2N       0.0839
     25 C25       -16.8521   47.4846   -3.3862 C.2         1 O2N      -0.1125
     26 C26       -17.7352   46.6755   -3.9886 C.2         1 O2N      -0.0447
     27 C27       -14.8558   46.4784   -0.4707 C.2         1 O2N       0.2037
     28 C28       -21.4574   44.2547    0.9134 C.2         1 O2N       0.0515
     29 C29       -23.8356   47.6365    1.8598 C.3         1 O2N       0.1864
     30 C30       -14.6186   54.0038   -3.3910 C.3         1 O2N       0.0579
     31 C31        -9.1111   47.6296    3.9614 C.3         1 O2N       0.0579
     32 C32       -17.0691   44.5150   -1.3803 C.3         1 O2N       0.0086
     33 C33       -19.5270   44.9044   -1.2597 C.3         1 O2N       0.0003
     34 C34       -18.2693   45.4464   -3.4223 C.3         1 O2N      -0.0011
     35 C35       -14.5065   48.7628    0.4777 C.3         1 O2N       0.0982
     36 N36       -14.6435   47.7897   -0.5691 N.am        1 O2N      -0.2653
     37 N37       -18.2213   45.3522   -1.9040 N.4         1 O2N       0.2715
     38 O38       -22.4475   43.4236    0.5213 O.co2       1 O2N      -0.5668
     39 O39       -15.0024   45.9642    0.6314 O.2         1 O2N      -0.3883
     40 O40       -20.7929   43.9681    2.0514 O.co2       1 O2N      -0.5668
     41 O41       -23.1633   48.5996    1.0287 O.3         1 O2N      -0.2947
     42 O42       -23.1153   46.3932    1.9191 O.3         1 O2N      -0.2890
     43 O43       -13.9508   53.8189   -2.1317 O.3         1 O2N      -0.3255
     44 O44       -10.4535   47.8567    4.4250 O.3         1 O2N      -0.3255
     45 H1        -12.5492   45.2547   -4.1503 H           1 O2N       0.0572
     46 H2        -14.1698   43.5710   -4.7909 H           1 O2N       0.0635
     47 H3        -12.8506   46.5052   -2.1481 H           1 O2N       0.0651
     48 H4        -16.1482   43.2375   -3.4998 H           1 O2N       0.0570
     49 H5        -19.9778   47.5096   -1.9939 H           1 O2N       0.0445
     50 H6        -12.2697   49.9585   -0.5695 H           1 O2N       0.0534
     51 H7        -16.4217   50.6031   -0.1470 H           1 O2N       0.0534
     52 H8        -12.6606   46.6800    0.6652 H           1 O2N       0.0534
     53 H9        -13.7819   50.2550    2.6110 H           1 O2N       0.0534
     54 H10       -21.4978   49.1241   -1.0786 H           1 O2N       0.0514
     55 H11       -12.0612   52.0884   -1.6652 H           1 O2N       0.0526
     56 H12       -16.2011   52.7201   -1.2568 H           1 O2N       0.0526
     57 H13       -10.9949   46.3008    2.3448 H           1 O2N       0.0526
     58 H14       -12.0656   49.8917    4.2481 H           1 O2N       0.0526
     59 H15       -16.5480   48.3161   -3.8421 H           1 O2N       0.0292
     60 H16       -16.5164   47.2966   -2.4739 H           1 O2N       0.0292
     61 H17       -18.0455   46.9466   -4.8952 H           1 O2N       0.0725
     62 H18       -24.8322   47.4472    1.4516 H           1 O2N       0.0973
     63 H19       -23.9421   48.0396    2.8678 H           1 O2N       0.0973
     64 H20       -14.3258   54.9777   -3.7851 H           1 O2N       0.0575
     65 H21       -15.7031   54.0000   -3.2638 H           1 O2N       0.0575
     66 H22       -14.3320   53.2427   -4.1206 H           1 O2N       0.0575
     67 H23        -8.4566   47.5859    4.8309 H           1 O2N       0.0575
     68 H24        -8.7629   48.4361    3.3124 H           1 O2N       0.0575
     69 H25        -9.0364   46.6776    3.4318 H           1 O2N       0.0575
     70 H26       -16.9527   44.6801   -0.3108 H           1 O2N       0.0995
     71 H27       -17.3636   43.4657   -1.4678 H           1 O2N       0.0995
     72 H28       -20.1082   44.2858   -1.9497 H           1 O2N       0.0966
     73 H29       -19.2829   44.2350   -0.4282 H           1 O2N       0.0966
     74 H30       -17.7223   44.6205   -3.8993 H           1 O2N       0.0998
     75 H31       -19.2967   45.3519   -3.7844 H           1 O2N       0.0998
     76 H32       -15.4440   48.7570    1.0461 H           1 O2N       0.0837
     77 H33       -14.5680   48.1311   -1.4751 H           1 O2N       0.1893
     78 H34       -18.0408   46.2869   -1.5463 H           1 O2N       0.2082
@<TRIPOS>BOND
     1     1     2  ar
     2     3     1  ar
     3     4     2  ar
     4    15     3  ar
     5    19     4  ar
     6     5    10  ar
     7    20     5  ar
     8     6    11  ar
     9    17     6  ar
    10     7    12  ar
    11    17     7  ar
    12     8    13  ar
    13    18     8  ar
    14     9    14  ar
    15    18     9  ar
    16    10    21  ar
    17    11    23  ar
    18    12    23  ar
    19    13    24  ar
    20    14    24  ar
    21    15    19  ar
    22    27    15   1
    23    20    16  ar
    24    16    22  ar
    25    16    28   1
    26    35    17   1
    27    35    18   1
    28    19    32   1
    29    33    20   1
    30    22    21  ar
    31    21    41   1
    32    22    42   1
    33    23    43   1
    34    24    44   1
    35    26    25   2
    36    34    26   1
    37    36    27  am
    38    27    39   2
    39    28    38  ar
    40    28    40  ar
    41    29    41   1
    42    42    29   1
    43    43    30   1
    44    44    31   1
    45    32    37   1
    46    37    33   1
    47    37    34   1
    48    35    36   1
    49     1    45   1
    50     2    46   1
    51     3    47   1
    52     4    48   1
    53     5    49   1
    54     6    50   1
    55     7    51   1
    56     8    52   1
    57     9    53   1
    58    10    54   1
    59    11    55   1
    60    12    56   1
    61    13    57   1
    62    14    58   1
    63    25    59   1
    64    25    60   1
    65    26    61   1
    66    29    62   1
    67    29    63   1
    68    30    64   1
    69    30    65   1
    70    30    66   1
    71    31    67   1
    72    31    68   1
    73    31    69   1
    74    32    70   1
    75    32    71   1
    76    33    72   1
    77    33    73   1
    78    34    74   1
    79    34    75   1
    80    35    76   1
    81    36    77   1
    82    37    78   1
@<TRIPOS>SUBSTRUCTURE
     1  O2N      1

