@<TRIPOS>MOLECULE
3zso_ligand_057
    78    82
SMALL
GAST_HUCK
****
This file was generated by PARSER (from files_GN.cpp)

@<TRIPOS>ATOM
      1 C1        -20.8536   45.7334   -1.4547 C.ar        1 O2N      -0.0630
      2 C2        -19.9295   45.0101   -0.6924 C.ar        1 O2N      -0.0640
      3 C3        -20.5297   46.1090   -2.7659 C.ar        1 O2N      -0.0483
      4 C4        -18.6769   44.6795   -1.2374 C.ar        1 O2N      -0.0493
      5 C5        -12.8987   45.7268   -2.8227 C.ar        1 O2N      -0.0712
      6 C6        -17.0379   49.4747   -5.5533 C.ar        1 O2N      -0.0648
      7 C7        -19.0425   50.4495   -6.5059 C.ar        1 O2N      -0.0648
      8 C8        -19.6487   48.1975   -8.7084 C.ar        1 O2N      -0.0648
      9 C9        -21.1905   47.2711   -7.0725 C.ar        1 O2N      -0.0648
     10 C10       -11.5132   45.9525   -2.7239 C.ar        1 O2N      -0.0449
     11 C11       -16.5023   50.7582   -5.3479 C.ar        1 O2N      -0.0392
     12 C12       -18.5159   51.7392   -6.2880 C.ar        1 O2N      -0.0392
     13 C13       -20.6539   48.1460   -9.6904 C.ar        1 O2N      -0.0392
     14 C14       -22.1955   47.2157   -8.0536 C.ar        1 O2N      -0.0392
     15 C15       -19.2975   45.7247   -3.3602 C.ar        1 O2N       0.0566
     16 C16       -13.1948   46.2804   -0.4483 C.ar        1 O2N       0.0376
     17 C17       -18.3097   49.2859   -6.1506 C.ar        1 O2N      -0.0192
     18 C18       -19.8974   47.7619   -7.3806 C.ar        1 O2N      -0.0192
     19 C19       -18.3362   44.9975   -2.5805 C.ar        1 O2N       0.0220
     20 C20       -13.7714   45.9155   -1.7126 C.ar        1 O2N      -0.0032
     21 C21       -10.9806   46.3572   -1.4970 C.ar        1 O2N       0.1200
     22 C22       -11.7967   46.5103   -0.3882 C.ar        1 O2N       0.1327
     23 C23       -17.2449   51.9012   -5.7013 C.ar        1 O2N       0.0839
     24 C24       -21.9346   47.6557   -9.3654 C.ar        1 O2N       0.0839
     25 C25       -15.4197   46.6488   -6.6454 C.2         1 O2N      -0.1125
     26 C26       -15.7844   45.8751   -5.6100 C.2         1 O2N      -0.0447
     27 C27       -19.1130   46.0649   -4.6970 C.2         1 O2N       0.2037
     28 C28       -13.9375   46.4162    0.7563 C.2         1 O2N       0.0515
     29 C29        -9.7063   46.8005    0.1883 C.3         1 O2N       0.1864
     30 C30       -16.5471   53.5369   -4.1662 C.3         1 O2N       0.0579
     31 C31       -23.2541   48.8534  -10.8804 C.3         1 O2N       0.0579
     32 C32       -17.0439   44.4236   -3.1092 C.3         1 O2N       0.0086
     33 C33       -15.2636   45.7423   -1.8815 C.3         1 O2N       0.0003
     34 C34       -15.9064   46.3775   -4.2455 C.3         1 O2N      -0.0011
     35 C35       -18.8071   47.8858   -6.3583 C.3         1 O2N       0.0982
     36 N36       -19.1034   47.3451   -5.0558 N.am        1 O2N      -0.2653
     37 N37       -15.8060   45.2908   -3.2114 N.4         1 O2N       0.2715
     38 O38       -14.6801   45.3992    1.2537 O.co2       1 O2N      -0.5668
     39 O39       -19.0048   45.1741   -5.5286 O.2         1 O2N      -0.3883
     40 O40       -13.7960   47.4875    1.5689 O.co2       1 O2N      -0.5668
     41 O41        -9.6882   46.6271   -1.2385 O.3         1 O2N      -0.2947
     42 O42       -11.0548   46.8622    0.6881 O.3         1 O2N      -0.2890
     43 O43       -16.7115   53.1528   -5.5448 O.3         1 O2N      -0.3255
     44 O44       -22.9220   47.5769  -10.3068 O.3         1 O2N      -0.3255
     45 H1        -21.7636   45.9766   -1.0574 H           1 O2N       0.0572
     46 H2        -20.1689   44.7202    0.2573 H           1 O2N       0.0635
     47 H3        -21.2367   46.6267   -3.2983 H           1 O2N       0.0651
     48 H4        -18.0252   44.1564   -0.6464 H           1 O2N       0.0570
     49 H5        -13.2598   45.4293   -3.7302 H           1 O2N       0.0445
     50 H6        -16.4845   48.6710   -5.2594 H           1 O2N       0.0534
     51 H7        -19.9712   50.3744   -6.9243 H           1 O2N       0.0534
     52 H8        -18.7335   48.5778   -8.9626 H           1 O2N       0.0534
     53 H9        -21.4233   46.9753   -6.1230 H           1 O2N       0.0534
     54 H10       -10.9050   45.8263   -3.5357 H           1 O2N       0.0514
     55 H11       -15.5745   50.8571   -4.9281 H           1 O2N       0.0526
     56 H12       -19.0640   52.5632   -6.5515 H           1 O2N       0.0526
     57 H13       -20.4539   48.4699  -10.6378 H           1 O2N       0.0526
     58 H14       -23.1215   46.8573   -7.8118 H           1 O2N       0.0526
     59 H15       -15.3271   46.2576   -7.5514 H           1 O2N       0.0292
     60 H16       -15.1883   47.6054   -6.5256 H           1 O2N       0.0292
     61 H17       -15.9365   44.9044   -5.7872 H           1 O2N       0.0725
     62 H18        -9.1799   47.7213    0.4514 H           1 O2N       0.0973
     63 H19        -9.1844   45.9604    0.6565 H           1 O2N       0.0973
     64 H20       -16.1184   54.5384   -4.1408 H           1 O2N       0.0575
     65 H21       -15.8648   52.8638   -3.6419 H           1 O2N       0.0575
     66 H22       -17.5059   53.5636   -3.6441 H           1 O2N       0.0575
     67 H23       -24.1147   48.7192  -11.5362 H           1 O2N       0.0575
     68 H24       -22.4240   49.2365  -11.4772 H           1 O2N       0.0575
     69 H25       -23.5264   49.5850  -10.1154 H           1 O2N       0.0575
     70 H26       -17.2368   43.9633   -4.0766 H           1 O2N       0.0995
     71 H27       -16.7596   43.5690   -2.4884 H           1 O2N       0.0995
     72 H28       -15.7566   46.6897   -1.6327 H           1 O2N       0.0966
     73 H29       -15.5554   45.0058   -1.1264 H           1 O2N       0.0966
     74 H30       -16.8517   46.9163   -4.1295 H           1 O2N       0.0998
     75 H31       -15.0976   47.1048   -4.1012 H           1 O2N       0.0998
     76 H32       -17.9595   47.3050   -6.7464 H           1 O2N       0.0837
     77 H33       -19.2300   47.9902   -4.3412 H           1 O2N       0.1893
     78 H34       -15.0965   44.6419   -3.5650 H           1 O2N       0.2082
@<TRIPOS>BOND
     1     1     2  ar
     2     3     1  ar
     3     4     2  ar
     4    15     3  ar
     5    19     4  ar
     6     5    10  ar
     7    20     5  ar
     8     6    11  ar
     9    17     6  ar
    10     7    12  ar
    11    17     7  ar
    12     8    13  ar
    13    18     8  ar
    14     9    14  ar
    15    18     9  ar
    16    10    21  ar
    17    11    23  ar
    18    12    23  ar
    19    13    24  ar
    20    14    24  ar
    21    15    19  ar
    22    27    15   1
    23    20    16  ar
    24    16    22  ar
    25    16    28   1
    26    35    17   1
    27    35    18   1
    28    19    32   1
    29    33    20   1
    30    22    21  ar
    31    21    41   1
    32    22    42   1
    33    23    43   1
    34    24    44   1
    35    26    25   2
    36    34    26   1
    37    36    27  am
    38    27    39   2
    39    28    38  ar
    40    28    40  ar
    41    29    41   1
    42    42    29   1
    43    43    30   1
    44    44    31   1
    45    32    37   1
    46    37    33   1
    47    37    34   1
    48    35    36   1
    49     1    45   1
    50     2    46   1
    51     3    47   1
    52     4    48   1
    53     5    49   1
    54     6    50   1
    55     7    51   1
    56     8    52   1
    57     9    53   1
    58    10    54   1
    59    11    55   1
    60    12    56   1
    61    13    57   1
    62    14    58   1
    63    25    59   1
    64    25    60   1
    65    26    61   1
    66    29    62   1
    67    29    63   1
    68    30    64   1
    69    30    65   1
    70    30    66   1
    71    31    67   1
    72    31    68   1
    73    31    69   1
    74    32    70   1
    75    32    71   1
    76    33    72   1
    77    33    73   1
    78    34    74   1
    79    34    75   1
    80    35    76   1
    81    36    77   1
    82    37    78   1
@<TRIPOS>SUBSTRUCTURE
     1  O2N      1

