@<TRIPOS>MOLECULE
3zso_ligand_089
    78    82
SMALL
GAST_HUCK
****
This file was generated by PARSER (from files_GN.cpp)

@<TRIPOS>ATOM
      1 C1        -11.8312   48.1398    2.8971 C.ar        1 O2N      -0.0630
      2 C2        -12.4312   49.3449    3.2907 C.ar        1 O2N      -0.0640
      3 C3        -12.0437   47.6385    1.6043 C.ar        1 O2N      -0.0483
      4 C4        -13.2399   50.0524    2.3830 C.ar        1 O2N      -0.0493
      5 C5        -17.3254   51.3913   -0.9555 C.ar        1 O2N      -0.0712
      6 C6        -16.3650   46.5600   -3.2373 C.ar        1 O2N      -0.0648
      7 C7        -16.3453   45.1398   -1.2730 C.ar        1 O2N      -0.0648
      8 C8        -11.8953   45.2189   -2.5847 C.ar        1 O2N      -0.0648
      9 C9        -13.6737   43.6490   -2.1017 C.ar        1 O2N      -0.0648
     10 C10       -18.1936   50.8739   -1.9322 C.ar        1 O2N      -0.0449
     11 C11       -17.7378   46.3126   -3.4053 C.ar        1 O2N      -0.0392
     12 C12       -17.7222   44.8798   -1.4455 C.ar        1 O2N      -0.0392
     13 C13       -10.9939   44.1493   -2.7612 C.ar        1 O2N      -0.0392
     14 C14       -12.7696   42.5785   -2.2689 C.ar        1 O2N      -0.0392
     15 C15       -12.8389   48.3509    0.6730 C.ar        1 O2N       0.0566
     16 C16       -16.0342   52.5559   -2.6824 C.ar        1 O2N       0.0376
     17 C17       -15.6312   45.9637   -2.1803 C.ar        1 O2N      -0.0192
     18 C18       -13.2508   44.9962   -2.2363 C.ar        1 O2N      -0.0192
     19 C19       -13.4421   49.5869    1.0620 C.ar        1 O2N       0.0220
     20 C20       -16.2267   52.2227   -1.3065 C.ar        1 O2N      -0.0032
     21 C21       -17.9696   51.1977   -3.2751 C.ar        1 O2N       0.1200
     22 C22       -16.9137   52.0139   -3.6430 C.ar        1 O2N       0.1327
     23 C23       -18.4329   45.4770   -2.5120 C.ar        1 O2N       0.0839
     24 C24       -11.4148   42.8180   -2.5827 C.ar        1 O2N       0.0839
     25 C25       -10.8651   50.8444   -1.3450 C.2         1 O2N      -0.1125
     26 C26       -11.6534   51.5691   -0.5381 C.2         1 O2N      -0.0447
     27 C27       -12.9981   47.8158   -0.5878 C.2         1 O2N       0.2037
     28 C28       -15.0351   53.4383   -3.1272 C.2         1 O2N       0.0515
     29 C29       -18.1664   51.6399   -5.3723 C.3         1 O2N       0.1864
     30 C30       -20.6756   45.2602   -1.7058 C.3         1 O2N       0.0579
     31 C31       -10.5840   40.5809   -2.1547 C.3         1 O2N       0.0579
     32 C32       -14.3785   50.3671    0.1976 C.3         1 O2N       0.0086
     33 C33       -15.2964   52.6641   -0.2122 C.3         1 O2N       0.0003
     34 C34       -12.9382   52.1298   -0.9367 C.3         1 O2N      -0.0011
     35 C35       -14.1494   46.1859   -2.0571 C.3         1 O2N       0.0982
     36 N36       -13.8411   46.8078   -0.7936 N.am        1 O2N      -0.2653
     37 N37       -14.0601   51.8282    0.0219 N.4         1 O2N       0.2715
     38 O38       -14.0489   52.9882   -3.9344 O.co2       1 O2N      -0.5668
     39 O39       -12.3028   48.2822   -1.4876 O.2         1 O2N      -0.3883
     40 O40       -15.2531   54.7727   -3.0742 O.co2       1 O2N      -0.5668
     41 O41       -18.7018   50.8031   -4.3322 O.3         1 O2N      -0.2947
     42 O42       -16.9087   52.2155   -4.9781 O.3         1 O2N      -0.2890
     43 O43       -19.7453   45.1953   -2.7993 O.3         1 O2N      -0.3255
     44 O44       -10.4758   41.8448   -2.8369 O.3         1 O2N      -0.3255
     45 H1        -11.2484   47.6190    3.5614 H           1 O2N       0.0572
     46 H2        -12.2999   49.6979    4.2419 H           1 O2N       0.0635
     47 H3        -11.5967   46.7563    1.3422 H           1 O2N       0.0651
     48 H4        -13.7024   50.9053    2.7109 H           1 O2N       0.0570
     49 H5        -17.5004   51.1448    0.0195 H           1 O2N       0.0445
     50 H6        -15.9004   47.1564   -3.9249 H           1 O2N       0.0534
     51 H7        -15.8544   44.7091   -0.4868 H           1 O2N       0.0534
     52 H8        -11.5526   46.1725   -2.7323 H           1 O2N       0.0534
     53 H9        -14.6483   43.4137   -1.8729 H           1 O2N       0.0534
     54 H10       -18.9782   50.2733   -1.6666 H           1 O2N       0.0514
     55 H11       -18.2437   46.7394   -4.1862 H           1 O2N       0.0526
     56 H12       -18.2019   44.2623   -0.7890 H           1 O2N       0.0526
     57 H13       -10.0245   44.3518   -3.0294 H           1 O2N       0.0526
     58 H14       -13.1222   41.6276   -2.1585 H           1 O2N       0.0526
     59 H15        -9.9727   50.5453   -1.0389 H           1 O2N       0.0292
     60 H16       -11.1358   50.6392   -2.2787 H           1 O2N       0.0292
     61 H17       -11.3264   51.7639    0.3819 H           1 O2N       0.0725
     62 H18       -18.8760   52.4452   -5.5889 H           1 O2N       0.0973
     63 H19       -18.0300   51.0494   -6.2807 H           1 O2N       0.0973
     64 H20       -21.6866   45.1941   -2.1194 H           1 O2N       0.0575
     65 H21       -20.5861   46.2024   -1.1563 H           1 O2N       0.0575
     66 H22       -20.5241   44.4165   -1.0278 H           1 O2N       0.0575
     67 H23        -9.6823   40.0077   -2.3579 H           1 O2N       0.0575
     68 H24       -11.4403   40.0089   -2.5343 H           1 O2N       0.0575
     69 H25       -10.6816   40.7166   -1.0700 H           1 O2N       0.0575
     70 H26       -15.3459   50.2607    0.6914 H           1 O2N       0.0995
     71 H27       -14.5048   49.9148   -0.7861 H           1 O2N       0.0995
     72 H28       -15.8442   52.6915    0.7313 H           1 O2N       0.0966
     73 H29       -15.0223   53.7069   -0.3760 H           1 O2N       0.0966
     74 H30       -13.2263   51.8367   -1.9558 H           1 O2N       0.0998
     75 H31       -12.7629   53.2106   -0.9591 H           1 O2N       0.0998
     76 H32       -13.8660   46.8539   -2.8695 H           1 O2N       0.0837
     77 H33       -14.3034   46.4750   -0.0098 H           1 O2N       0.1893
     78 H34       -13.7200   52.1415    0.9313 H           1 O2N       0.2082
@<TRIPOS>BOND
     1     1     2  ar
     2     3     1  ar
     3     4     2  ar
     4    15     3  ar
     5    19     4  ar
     6     5    10  ar
     7    20     5  ar
     8     6    11  ar
     9    17     6  ar
    10     7    12  ar
    11    17     7  ar
    12     8    13  ar
    13    18     8  ar
    14     9    14  ar
    15    18     9  ar
    16    10    21  ar
    17    11    23  ar
    18    12    23  ar
    19    13    24  ar
    20    14    24  ar
    21    15    19  ar
    22    27    15   1
    23    20    16  ar
    24    16    22  ar
    25    16    28   1
    26    35    17   1
    27    35    18   1
    28    19    32   1
    29    33    20   1
    30    22    21  ar
    31    21    41   1
    32    22    42   1
    33    23    43   1
    34    24    44   1
    35    26    25   2
    36    34    26   1
    37    36    27  am
    38    27    39   2
    39    28    38  ar
    40    28    40  ar
    41    29    41   1
    42    42    29   1
    43    43    30   1
    44    44    31   1
    45    32    37   1
    46    37    33   1
    47    37    34   1
    48    35    36   1
    49     1    45   1
    50     2    46   1
    51     3    47   1
    52     4    48   1
    53     5    49   1
    54     6    50   1
    55     7    51   1
    56     8    52   1
    57     9    53   1
    58    10    54   1
    59    11    55   1
    60    12    56   1
    61    13    57   1
    62    14    58   1
    63    25    59   1
    64    25    60   1
    65    26    61   1
    66    29    62   1
    67    29    63   1
    68    30    64   1
    69    30    65   1
    70    30    66   1
    71    31    67   1
    72    31    68   1
    73    31    69   1
    74    32    70   1
    75    32    71   1
    76    33    72   1
    77    33    73   1
    78    34    74   1
    79    34    75   1
    80    35    76   1
    81    36    77   1
    82    37    78   1
@<TRIPOS>SUBSTRUCTURE
     1  O2N      1

