@<TRIPOS>MOLECULE
3zso_ligand_015
    78    82
SMALL
GAST_HUCK
****
This file was generated by PARSER (from files_GN.cpp)

@<TRIPOS>ATOM
      1 C1        -11.2581   46.8928    1.8746 C.ar        1 O2N      -0.0630
      2 C2        -11.7223   48.0856    2.4461 C.ar        1 O2N      -0.0640
      3 C3        -11.9258   46.3465    0.7669 C.ar        1 O2N      -0.0483
      4 C4        -12.8278   48.7507    1.8854 C.ar        1 O2N      -0.0493
      5 C5        -12.3725   52.8849   -2.0376 C.ar        1 O2N      -0.0712
      6 C6        -15.2569   44.4242   -4.7589 C.ar        1 O2N      -0.0648
      7 C7        -16.0889   46.1221   -3.2351 C.ar        1 O2N      -0.0648
      8 C8        -11.6741   43.7954   -3.1502 C.ar        1 O2N      -0.0648
      9 C9        -13.6778   43.1125   -1.9682 C.ar        1 O2N      -0.0648
     10 C10       -12.2078   54.2730   -2.1938 C.ar        1 O2N      -0.0449
     11 C11       -16.5286   44.3243   -5.3501 C.ar        1 O2N      -0.0392
     12 C12       -17.3688   46.0088   -3.8156 C.ar        1 O2N      -0.0392
     13 C13       -11.0491   42.5851   -2.7918 C.ar        1 O2N      -0.0392
     14 C14       -13.0497   41.9083   -1.5947 C.ar        1 O2N      -0.0392
     15 C15       -13.0412   47.0071    0.1866 C.ar        1 O2N       0.0566
     16 C16       -13.2185   53.2040    0.2327 C.ar        1 O2N       0.0376
     17 C17       -15.0112   45.3158   -3.6828 C.ar        1 O2N      -0.0192
     18 C18       -12.9980   44.0869   -2.7400 C.ar        1 O2N      -0.0192
     19 C19       -13.5003   48.2481    0.7366 C.ar        1 O2N       0.0220
     20 C20       -12.8908   52.3198   -0.8417 C.ar        1 O2N      -0.0032
     21 C21       -12.5597   55.1174   -1.1327 C.ar        1 O2N       0.1200
     22 C22       -13.0534   54.5989    0.0566 C.ar        1 O2N       0.1327
     23 C23       -17.5925   45.1161   -4.8846 C.ar        1 O2N       0.0839
     24 C24       -11.7258   41.6455   -1.9911 C.ar        1 O2N       0.0839
     25 C25       -16.2318   50.8283   -3.2453 C.2         1 O2N      -0.1125
     26 C26       -15.8158   51.6097   -2.2247 C.2         1 O2N      -0.0447
     27 C27       -13.7293   46.2713   -0.7622 C.2         1 O2N       0.2037
     28 C28       -13.6247   52.7497    1.5042 C.2         1 O2N       0.0515
     29 C29       -12.6483   56.7087    0.3136 C.3         1 O2N       0.1864
     30 C30       -19.4212   46.1755   -5.9297 C.3         1 O2N       0.0579
     31 C31        -9.9259   40.6510   -0.8507 C.3         1 O2N       0.0579
     32 C32       -14.6551   49.0456    0.1938 C.3         1 O2N       0.0086
     33 C33       -13.0212   50.8243   -0.7397 C.3         1 O2N       0.0003
     34 C34       -15.5724   51.0943   -0.8893 C.3         1 O2N      -0.0011
     35 C35       -13.6258   45.4043   -3.1040 C.3         1 O2N       0.0982
     36 N36       -13.3753   46.3556   -2.0431 N.am        1 O2N      -0.2653
     37 N37       -14.3865   50.1645   -0.7959 N.4         1 O2N       0.2715
     38 O38       -14.5448   53.4511    2.2153 O.co2       1 O2N      -0.5668
     39 O39       -14.3768   45.3202   -0.3408 O.2         1 O2N      -0.3883
     40 O40       -12.7431   52.0100    2.2196 O.co2       1 O2N      -0.5668
     41 O41       -12.4295   56.4593   -1.0863 O.3         1 O2N      -0.2947
     42 O42       -13.2778   55.5884    0.9578 O.3         1 O2N      -0.2890
     43 O43       -18.8305   44.9528   -5.4440 O.3         1 O2N      -0.3255
     44 O44       -11.1211   40.4665   -1.6323 O.3         1 O2N      -0.3255
     45 H1        -10.4623   46.3999    2.2944 H           1 O2N       0.0572
     46 H2        -11.2502   48.4845    3.2613 H           1 O2N       0.0635
     47 H3        -11.5965   45.4404    0.4051 H           1 O2N       0.0651
     48 H4        -13.1568   49.6096    2.3368 H           1 O2N       0.0570
     49 H5        -12.1043   52.2827   -2.8197 H           1 O2N       0.0445
     50 H6        -14.5063   43.8345   -5.1209 H           1 O2N       0.0534
     51 H7        -15.9600   46.8154   -2.4950 H           1 O2N       0.0534
     52 H8        -11.1428   44.4703   -3.7098 H           1 O2N       0.0534
     53 H9        -14.6450   43.2635   -1.6773 H           1 O2N       0.0534
     54 H10       -11.8249   54.6605   -3.0556 H           1 O2N       0.0514
     55 H11       -16.6806   43.6724   -6.1181 H           1 O2N       0.0526
     56 H12       -18.1347   46.5884   -3.4566 H           1 O2N       0.0526
     57 H13       -10.0891   42.3980   -3.0982 H           1 O2N       0.0526
     58 H14       -13.5464   41.2266   -1.0161 H           1 O2N       0.0526
     59 H15       -16.3687   51.2245   -4.1400 H           1 O2N       0.0292
     60 H16       -16.3404   49.8510   -3.1259 H           1 O2N       0.0292
     61 H17       -15.7320   52.5849   -2.3881 H           1 O2N       0.0725
     62 H18       -13.2782   57.5907    0.4287 H           1 O2N       0.0973
     63 H19       -11.6896   56.9045    0.8011 H           1 O2N       0.0973
     64 H20       -20.3528   45.9294   -6.4390 H           1 O2N       0.0575
     65 H21       -18.7641   46.6798   -6.6457 H           1 O2N       0.0575
     66 H22       -19.6462   46.8552   -5.0987 H           1 O2N       0.0575
     67 H23        -9.5757   39.6732   -0.5259 H           1 O2N       0.0575
     68 H24       -10.1209   41.2558    0.0398 H           1 O2N       0.0575
     69 H25        -9.1376   41.1191   -1.4502 H           1 O2N       0.0575
     70 H26       -15.2221   49.4587    1.0407 H           1 O2N       0.0995
     71 H27       -15.3376   48.3346   -0.2874 H           1 O2N       0.0995
     72 H28       -12.4776   50.5285    0.1616 H           1 O2N       0.0966
     73 H29       -12.4662   50.3609   -1.5569 H           1 O2N       0.0966
     74 H30       -16.4929   50.5840   -0.5753 H           1 O2N       0.0998
     75 H31       -15.4321   51.9345   -0.2037 H           1 O2N       0.0998
     76 H32       -13.0481   45.8129   -3.9326 H           1 O2N       0.0837
     77 H33       -12.7999   47.1087   -2.2780 H           1 O2N       0.1893
     78 H34       -14.3894   49.6810   -1.6987 H           1 O2N       0.2082
@<TRIPOS>BOND
     1     1     2  ar
     2     3     1  ar
     3     4     2  ar
     4    15     3  ar
     5    19     4  ar
     6     5    10  ar
     7    20     5  ar
     8     6    11  ar
     9    17     6  ar
    10     7    12  ar
    11    17     7  ar
    12     8    13  ar
    13    18     8  ar
    14     9    14  ar
    15    18     9  ar
    16    10    21  ar
    17    11    23  ar
    18    12    23  ar
    19    13    24  ar
    20    14    24  ar
    21    15    19  ar
    22    27    15   1
    23    20    16  ar
    24    16    22  ar
    25    16    28   1
    26    35    17   1
    27    35    18   1
    28    19    32   1
    29    33    20   1
    30    22    21  ar
    31    21    41   1
    32    22    42   1
    33    23    43   1
    34    24    44   1
    35    26    25   2
    36    34    26   1
    37    36    27  am
    38    27    39   2
    39    28    38  ar
    40    28    40  ar
    41    29    41   1
    42    42    29   1
    43    43    30   1
    44    44    31   1
    45    32    37   1
    46    37    33   1
    47    37    34   1
    48    35    36   1
    49     1    45   1
    50     2    46   1
    51     3    47   1
    52     4    48   1
    53     5    49   1
    54     6    50   1
    55     7    51   1
    56     8    52   1
    57     9    53   1
    58    10    54   1
    59    11    55   1
    60    12    56   1
    61    13    57   1
    62    14    58   1
    63    25    59   1
    64    25    60   1
    65    26    61   1
    66    29    62   1
    67    29    63   1
    68    30    64   1
    69    30    65   1
    70    30    66   1
    71    31    67   1
    72    31    68   1
    73    31    69   1
    74    32    70   1
    75    32    71   1
    76    33    72   1
    77    33    73   1
    78    34    74   1
    79    34    75   1
    80    35    76   1
    81    36    77   1
    82    37    78   1
@<TRIPOS>SUBSTRUCTURE
     1  O2N      1

