@<TRIPOS>MOLECULE
3zso_ligand_011
    78    82
SMALL
GAST_HUCK
****
This file was generated by PARSER (from files_GN.cpp)

@<TRIPOS>ATOM
      1 C1        -20.7244   46.0838   -1.3789 C.ar        1 O2N      -0.0630
      2 C2        -19.8153   45.0608   -1.0846 C.ar        1 O2N      -0.0640
      3 C3        -20.3344   47.1391   -2.2189 C.ar        1 O2N      -0.0483
      4 C4        -18.5186   45.0874   -1.6254 C.ar        1 O2N      -0.0493
      5 C5        -12.8291   45.2521   -2.7764 C.ar        1 O2N      -0.0712
      6 C6        -19.6683   48.0409   -7.7384 C.ar        1 O2N      -0.0648
      7 C7        -20.6388   50.2331   -7.3574 C.ar        1 O2N      -0.0648
      8 C8        -16.7905   50.7978   -5.8365 C.ar        1 O2N      -0.0648
      9 C9        -16.6491   48.4720   -6.5109 C.ar        1 O2N      -0.0648
     10 C10       -11.6682   46.0413   -2.7503 C.ar        1 O2N      -0.0449
     11 C11       -20.4562   47.8896   -8.8924 C.ar        1 O2N      -0.0392
     12 C12       -21.4433   50.0774   -8.4978 C.ar        1 O2N      -0.0392
     13 C13       -15.4186   50.9568   -6.0946 C.ar        1 O2N      -0.0392
     14 C14       -15.2846   48.6344   -6.7991 C.ar        1 O2N      -0.0392
     15 C15       -19.0302   47.1823   -2.7659 C.ar        1 O2N       0.0566
     16 C16       -13.6450   46.3223   -0.7269 C.ar        1 O2N       0.0376
     17 C17       -19.7310   49.2210   -6.9517 C.ar        1 O2N      -0.0192
     18 C18       -17.4352   49.5551   -6.0468 C.ar        1 O2N      -0.0192
     19 C19       -18.0962   46.1357   -2.4867 C.ar        1 O2N       0.0220
     20 C20       -13.8437   45.3898   -1.7971 C.ar        1 O2N      -0.0032
     21 C21       -11.5093   46.9782   -1.7225 C.ar        1 O2N       0.1200
     22 C22       -12.4740   47.1179   -0.7317 C.ar        1 O2N       0.1327
     23 C23       -21.3637   48.8995   -9.2711 C.ar        1 O2N       0.0839
     24 C24       -14.6612   49.8829   -6.6115 C.ar        1 O2N       0.0839
     25 C25       -17.0788   43.1494   -5.4821 C.2         1 O2N      -0.1125
     26 C26       -16.3159   44.2539   -5.5049 C.2         1 O2N      -0.0447
     27 C27       -18.7104   48.2735   -3.5339 C.2         1 O2N       0.2037
     28 C28       -14.5345   46.4810    0.3614 C.2         1 O2N       0.0515
     29 C29       -10.8846   48.5669   -0.4020 C.3         1 O2N       0.1864
     30 C30       -23.2491   47.8926  -10.2401 C.3         1 O2N       0.0579
     31 C31       -13.0334   50.8365   -8.0199 C.3         1 O2N       0.0579
     32 C32       -16.6937   46.1649   -3.0252 C.3         1 O2N       0.0086
     33 C33       -15.0810   44.5449   -1.9517 C.3         1 O2N       0.0003
     34 C34       -15.3455   44.5586   -4.4709 C.3         1 O2N      -0.0011
     35 C35       -18.8918   49.3932   -5.7220 C.3         1 O2N       0.0982
     36 N36       -19.1489   48.3376   -4.7866 N.am        1 O2N      -0.2653
     37 N37       -15.9747   44.8394   -3.1305 N.4         1 O2N       0.2715
     38 O38       -14.8530   47.7152    0.8213 O.co2       1 O2N      -0.5668
     39 O39       -17.9947   49.1487   -3.0467 O.2         1 O2N      -0.3883
     40 O40       -14.7659   45.4465    1.2023 O.co2       1 O2N      -0.5668
     41 O41       -10.4480   47.7828   -1.5240 O.3         1 O2N      -0.2947
     42 O42       -12.0781   48.0239    0.1850 O.3         1 O2N      -0.2890
     43 O43       -22.1312   48.7822  -10.3966 O.3         1 O2N      -0.3255
     44 O44       -13.3199   50.0191   -6.8718 O.3         1 O2N      -0.3255
     45 H1        -21.6625   46.0749   -0.9740 H           1 O2N       0.0572
     46 H2        -20.0952   44.2960   -0.4660 H           1 O2N       0.0635
     47 H3        -21.0088   47.8887   -2.4071 H           1 O2N       0.0651
     48 H4        -17.8842   44.3287   -1.3706 H           1 O2N       0.0570
     49 H5        -12.9110   44.5537   -3.5174 H           1 O2N       0.0445
     50 H6        -19.0590   47.2668   -7.4710 H           1 O2N       0.0534
     51 H7        -20.7161   51.0997   -6.8146 H           1 O2N       0.0534
     52 H8        -17.3155   51.5981   -5.4843 H           1 O2N       0.0534
     53 H9        -17.0537   47.5437   -6.6265 H           1 O2N       0.0534
     54 H10       -10.9473   45.9326   -3.4683 H           1 O2N       0.0514
     55 H11       -20.3849   47.0387   -9.4548 H           1 O2N       0.0526
     56 H12       -22.0881   50.8224   -8.7673 H           1 O2N       0.0526
     57 H13       -14.9711   51.8622   -5.9250 H           1 O2N       0.0526
     58 H14       -14.7394   47.8430   -7.1528 H           1 O2N       0.0526
     59 H15       -17.7076   42.9596   -6.2266 H           1 O2N       0.0292
     60 H16       -17.0300   42.5125   -4.7237 H           1 O2N       0.0292
     61 H17       -16.3914   44.8551   -6.2917 H           1 O2N       0.0725
     62 H18       -11.0803   49.5888   -0.7351 H           1 O2N       0.0973
     63 H19       -10.0957   48.5968    0.3504 H           1 O2N       0.0973
     64 H20       -23.8322   47.9141  -11.1611 H           1 O2N       0.0575
     65 H21       -23.8991   48.2044   -9.4186 H           1 O2N       0.0575
     66 H22       -22.9174   46.8656  -10.0734 H           1 O2N       0.0575
     67 H23       -11.9637   50.7837   -8.2176 H           1 O2N       0.0575
     68 H24       -13.2973   51.8811   -7.8330 H           1 O2N       0.0575
     69 H25       -13.5652   50.4845   -8.9084 H           1 O2N       0.0575
     70 H26       -16.1459   46.8740   -2.4077 H           1 O2N       0.0995
     71 H27       -16.7200   46.6235   -4.0124 H           1 O2N       0.0995
     72 H28       -15.7070   44.6158   -1.0650 H           1 O2N       0.0966
     73 H29       -14.7800   43.4913   -1.9835 H           1 O2N       0.0966
     74 H30       -14.7453   45.4212   -4.7851 H           1 O2N       0.0998
     75 H31       -14.6721   43.7038   -4.4050 H           1 O2N       0.0998
     76 H32       -19.2324   50.2969   -5.2039 H           1 O2N       0.0837
     77 H33       -19.7103   47.6019   -5.0854 H           1 O2N       0.1893
     78 H34       -16.7065   44.1293   -3.0664 H           1 O2N       0.2082
@<TRIPOS>BOND
     1     1     2  ar
     2     3     1  ar
     3     4     2  ar
     4    15     3  ar
     5    19     4  ar
     6     5    10  ar
     7    20     5  ar
     8     6    11  ar
     9    17     6  ar
    10     7    12  ar
    11    17     7  ar
    12     8    13  ar
    13    18     8  ar
    14     9    14  ar
    15    18     9  ar
    16    10    21  ar
    17    11    23  ar
    18    12    23  ar
    19    13    24  ar
    20    14    24  ar
    21    15    19  ar
    22    27    15   1
    23    20    16  ar
    24    16    22  ar
    25    16    28   1
    26    35    17   1
    27    35    18   1
    28    19    32   1
    29    33    20   1
    30    22    21  ar
    31    21    41   1
    32    22    42   1
    33    23    43   1
    34    24    44   1
    35    26    25   2
    36    34    26   1
    37    36    27  am
    38    27    39   2
    39    28    38  ar
    40    28    40  ar
    41    29    41   1
    42    42    29   1
    43    43    30   1
    44    44    31   1
    45    32    37   1
    46    37    33   1
    47    37    34   1
    48    35    36   1
    49     1    45   1
    50     2    46   1
    51     3    47   1
    52     4    48   1
    53     5    49   1
    54     6    50   1
    55     7    51   1
    56     8    52   1
    57     9    53   1
    58    10    54   1
    59    11    55   1
    60    12    56   1
    61    13    57   1
    62    14    58   1
    63    25    59   1
    64    25    60   1
    65    26    61   1
    66    29    62   1
    67    29    63   1
    68    30    64   1
    69    30    65   1
    70    30    66   1
    71    31    67   1
    72    31    68   1
    73    31    69   1
    74    32    70   1
    75    32    71   1
    76    33    72   1
    77    33    73   1
    78    34    74   1
    79    34    75   1
    80    35    76   1
    81    36    77   1
    82    37    78   1
@<TRIPOS>SUBSTRUCTURE
     1  O2N      1

