@<TRIPOS>MOLECULE
3zso_ligand_013
    78    82
SMALL
GAST_HUCK
****
This file was generated by PARSER (from files_GN.cpp)

@<TRIPOS>ATOM
      1 C1        -11.5050   47.5990    2.1985 C.ar        1 O2N      -0.0630
      2 C2        -12.0939   48.8356    2.5071 C.ar        1 O2N      -0.0640
      3 C3        -12.0050   46.8438    1.1273 C.ar        1 O2N      -0.0483
      4 C4        -13.1465   49.3256    1.7237 C.ar        1 O2N      -0.0493
      5 C5        -16.2099   50.1914   -3.2277 C.ar        1 O2N      -0.0712
      6 C6        -15.1674   44.5418   -4.4887 C.ar        1 O2N      -0.0648
      7 C7        -15.9266   46.2758   -2.9737 C.ar        1 O2N      -0.0648
      8 C8        -11.4532   43.9891   -2.9193 C.ar        1 O2N      -0.0648
      9 C9        -13.5262   43.1746   -1.9519 C.ar        1 O2N      -0.0648
     10 C10       -16.0098   50.2243   -4.6185 C.ar        1 O2N      -0.0449
     11 C11       -16.4625   44.4366   -5.0226 C.ar        1 O2N      -0.0392
     12 C12       -17.2258   46.1667   -3.5006 C.ar        1 O2N      -0.0392
     13 C13       -10.8252   42.7742   -2.5996 C.ar        1 O2N      -0.0392
     14 C14       -12.8951   41.9635   -1.6167 C.ar        1 O2N      -0.0392
     15 C15       -13.0759   47.3243    0.3328 C.ar        1 O2N       0.0566
     16 C16       -15.7614   52.6005   -3.0661 C.ar        1 O2N       0.0376
     17 C17       -14.8681   45.4575   -3.4462 C.ar        1 O2N      -0.0192
     18 C18       -12.8163   44.2173   -2.6042 C.ar        1 O2N      -0.0192
     19 C19       -13.6248   48.6183    0.5846 C.ar        1 O2N       0.0220
     20 C20       -16.0718   51.3530   -2.4249 C.ar        1 O2N      -0.0032
     21 C21       -15.6617   51.4386   -5.2201 C.ar        1 O2N       0.1200
     22 C22       -15.5436   52.5933   -4.4672 C.ar        1 O2N       0.1327
     23 C23       -17.4996   45.2551   -4.5404 C.ar        1 O2N       0.0839
     24 C24       -11.5381   41.7583   -1.9334 C.ar        1 O2N       0.0839
     25 C25       -12.8554   53.7941   -0.1457 C.2         1 O2N      -0.1125
     26 C26       -13.8136   52.8821    0.0621 C.2         1 O2N      -0.0447
     27 C27       -13.5818   46.4422   -0.6110 C.2         1 O2N       0.2037
     28 C28       -15.6583   53.8369   -2.3819 C.2         1 O2N       0.0515
     29 C29       -15.1385   53.0502   -6.5629 C.3         1 O2N       0.1864
     30 C30       -19.2551   46.2737   -5.7327 C.3         1 O2N       0.0579
     31 C31        -9.8611   40.6424   -0.7164 C.3         1 O2N       0.0579
     32 C32       -14.6909   49.2095   -0.2949 C.3         1 O2N       0.0086
     33 C33       -16.1853   51.1760   -0.9401 C.3         1 O2N       0.0003
     34 C34       -13.7282   51.5287   -0.4669 C.3         1 O2N      -0.0011
     35 C35       -13.4565   45.5440   -2.9326 C.3         1 O2N       0.0982
     36 N36       -13.1867   46.4945   -1.8765 N.am        1 O2N      -0.2653
     37 N37       -14.9626   50.6969   -0.1957 N.4         1 O2N       0.2715
     38 O38       -14.6386   54.6984   -2.6164 O.co2       1 O2N      -0.5668
     39 O39       -14.2872   45.5274   -0.2039 O.2         1 O2N      -0.3883
     40 O40       -16.7119   54.3379   -1.6957 O.co2       1 O2N      -0.5668
     41 O41       -15.4224   51.6436   -6.5254 O.3         1 O2N      -0.2947
     42 O42       -15.2395   53.6462   -5.2577 O.3         1 O2N      -0.2890
     43 O43       -18.7594   45.1087   -5.0513 O.3         1 O2N      -0.3255
     44 O44       -10.9421   40.5589   -1.6615 O.3         1 O2N      -0.3255
     45 H1        -10.7507   47.2315    2.7826 H           1 O2N       0.0572
     46 H2        -11.7584   49.3696    3.3162 H           1 O2N       0.0635
     47 H3        -11.5803   45.9259    0.9464 H           1 O2N       0.0651
     48 H4        -13.5696   50.2083    2.0090 H           1 O2N       0.0570
     49 H5        -16.4522   49.2938   -2.7970 H           1 O2N       0.0445
     50 H6        -14.4382   43.9344   -4.8673 H           1 O2N       0.0534
     51 H7        -15.7638   46.9685   -2.2446 H           1 O2N       0.0534
     52 H8        -10.9088   44.7168   -3.3906 H           1 O2N       0.0534
     53 H9        -14.5156   43.2860   -1.7194 H           1 O2N       0.0534
     54 H10       -16.1045   49.3702   -5.1764 H           1 O2N       0.0514
     55 H11       -16.6536   43.7603   -5.7671 H           1 O2N       0.0526
     56 H12       -17.9722   46.7628   -3.1291 H           1 O2N       0.0526
     57 H13        -9.8446   42.6310   -2.8487 H           1 O2N       0.0526
     58 H14       -13.4202   41.2223   -1.1455 H           1 O2N       0.0526
     59 H15       -12.9321   54.7044    0.2403 H           1 O2N       0.0292
     60 H16       -12.0522   53.5845   -0.6918 H           1 O2N       0.0292
     61 H17       -14.5909   53.1422    0.6231 H           1 O2N       0.0725
     62 H18       -15.8434   53.5436   -7.2374 H           1 O2N       0.0973
     63 H19       -14.1283   53.2087   -6.9503 H           1 O2N       0.0973
     64 H20       -20.2178   46.0173   -6.1717 H           1 O2N       0.0575
     65 H21       -18.5842   46.5877   -6.5354 H           1 O2N       0.0575
     66 H22       -19.4060   47.1050   -5.0414 H           1 O2N       0.0575
     67 H23        -9.4949   39.6310   -0.5412 H           1 O2N       0.0575
     68 H24       -10.1956   41.0580    0.2386 H           1 O2N       0.0575
     69 H25        -9.0360   41.2422   -1.1097 H           1 O2N       0.0575
     70 H26       -15.6063   48.6574   -0.0724 H           1 O2N       0.0995
     71 H27       -14.4268   48.9959   -1.3296 H           1 O2N       0.0995
     72 H28       -17.0160   50.5012   -0.7251 H           1 O2N       0.0966
     73 H29       -16.4868   52.1071   -0.4723 H           1 O2N       0.0966
     74 H30       -12.8441   51.0769   -0.0110 H           1 O2N       0.0998
     75 H31       -13.5290   51.5720   -1.5402 H           1 O2N       0.0998
     76 H32       -12.9122   45.9491   -3.7902 H           1 O2N       0.0837
     77 H33       -12.5916   47.2238   -2.1139 H           1 O2N       0.1893
     78 H34       -15.2213   50.8578    0.7803 H           1 O2N       0.2082
@<TRIPOS>BOND
     1     1     2  ar
     2     3     1  ar
     3     4     2  ar
     4    15     3  ar
     5    19     4  ar
     6     5    10  ar
     7    20     5  ar
     8     6    11  ar
     9    17     6  ar
    10     7    12  ar
    11    17     7  ar
    12     8    13  ar
    13    18     8  ar
    14     9    14  ar
    15    18     9  ar
    16    10    21  ar
    17    11    23  ar
    18    12    23  ar
    19    13    24  ar
    20    14    24  ar
    21    15    19  ar
    22    27    15   1
    23    20    16  ar
    24    16    22  ar
    25    16    28   1
    26    35    17   1
    27    35    18   1
    28    19    32   1
    29    33    20   1
    30    22    21  ar
    31    21    41   1
    32    22    42   1
    33    23    43   1
    34    24    44   1
    35    26    25   2
    36    34    26   1
    37    36    27  am
    38    27    39   2
    39    28    38  ar
    40    28    40  ar
    41    29    41   1
    42    42    29   1
    43    43    30   1
    44    44    31   1
    45    32    37   1
    46    37    33   1
    47    37    34   1
    48    35    36   1
    49     1    45   1
    50     2    46   1
    51     3    47   1
    52     4    48   1
    53     5    49   1
    54     6    50   1
    55     7    51   1
    56     8    52   1
    57     9    53   1
    58    10    54   1
    59    11    55   1
    60    12    56   1
    61    13    57   1
    62    14    58   1
    63    25    59   1
    64    25    60   1
    65    26    61   1
    66    29    62   1
    67    29    63   1
    68    30    64   1
    69    30    65   1
    70    30    66   1
    71    31    67   1
    72    31    68   1
    73    31    69   1
    74    32    70   1
    75    32    71   1
    76    33    72   1
    77    33    73   1
    78    34    74   1
    79    34    75   1
    80    35    76   1
    81    36    77   1
    82    37    78   1
@<TRIPOS>SUBSTRUCTURE
     1  O2N      1

