@<TRIPOS>MOLECULE
3zso_ligand_062
    78    82
SMALL
GAST_HUCK
****
This file was generated by PARSER (from files_GN.cpp)

@<TRIPOS>ATOM
      1 C1        -16.8022   47.8483   -7.4810 C.ar        1 O2N      -0.0630
      2 C2        -15.6250   47.1100   -7.2956 C.ar        1 O2N      -0.0640
      3 C3        -17.8974   47.6418   -6.6316 C.ar        1 O2N      -0.0483
      4 C4        -15.5342   46.1938   -6.2340 C.ar        1 O2N      -0.0493
      5 C5        -12.9151   43.2346   -2.0429 C.ar        1 O2N      -0.0712
      6 C6        -21.7008   49.7117   -4.1104 C.ar        1 O2N      -0.0648
      7 C7        -21.1061   49.2404   -1.8080 C.ar        1 O2N      -0.0648
      8 C8        -19.9050   45.7636   -1.9063 C.ar        1 O2N      -0.0648
      9 C9        -22.3210   45.8808   -2.1089 C.ar        1 O2N      -0.0648
     10 C10       -12.1217   42.7545   -0.9841 C.ar        1 O2N      -0.0449
     11 C11       -22.0030   51.0405   -3.7645 C.ar        1 O2N      -0.0392
     12 C12       -21.4091   50.5663   -1.4575 C.ar        1 O2N      -0.0392
     13 C13       -20.0318   44.7937   -0.8969 C.ar        1 O2N      -0.0392
     14 C14       -22.4518   44.9228   -1.0856 C.ar        1 O2N      -0.0392
     15 C15       -17.8326   46.6973   -5.5723 C.ar        1 O2N       0.0566
     16 C16       -12.4378   45.5499   -1.3816 C.ar        1 O2N       0.0376
     17 C17       -21.2418   48.7809   -3.1447 C.ar        1 O2N      -0.0192
     18 C18       -21.0463   46.3220   -2.5365 C.ar        1 O2N      -0.0192
     19 C19       -16.6079   45.9922   -5.3373 C.ar        1 O2N       0.0220
     20 C20       -13.1048   44.6310   -2.2548 C.ar        1 O2N      -0.0032
     21 C21       -11.5111   43.6736   -0.1249 C.ar        1 O2N       0.1200
     22 C22       -11.6634   45.0371   -0.3178 C.ar        1 O2N       0.1327
     23 C23       -21.8495   51.4809   -2.4359 C.ar        1 O2N       0.0839
     24 C24       -21.3108   44.3859   -0.4633 C.ar        1 O2N       0.0839
     25 C25       -16.3851   43.1563   -1.6322 C.2         1 O2N      -0.1125
     26 C26       -16.3883   44.4032   -1.1385 C.2         1 O2N      -0.0447
     27 C27       -19.0096   46.4458   -4.8889 C.2         1 O2N       0.2037
     28 C28       -12.4929   46.9467   -1.5575 C.2         1 O2N       0.0515
     29 C29       -10.5619   44.6925    1.5222 C.3         1 O2N       0.1864
     30 C30       -21.0822   53.6774   -2.1135 C.3         1 O2N       0.0579
     31 C31       -21.7856   43.9872    1.8062 C.3         1 O2N       0.0579
     32 C32       -16.3805   45.0644   -4.1850 C.3         1 O2N       0.0086
     33 C33       -13.9359   45.0696   -3.4267 C.3         1 O2N       0.0003
     34 C34       -15.8438   45.5957   -1.7735 C.3         1 O2N      -0.0011
     35 C35       -20.9117   47.3815   -3.5926 C.3         1 O2N       0.0982
     36 N36       -19.6087   47.4176   -4.2131 N.am        1 O2N      -0.2653
     37 N37       -15.3453   45.5816   -3.1957 N.4         1 O2N       0.2715
     38 O38       -11.3856   47.5999   -1.9759 O.co2       1 O2N      -0.5668
     39 O39       -19.5106   45.3327   -4.9965 O.2         1 O2N      -0.3883
     40 O40       -13.3257   47.6560   -0.7541 O.co2       1 O2N      -0.5668
     41 O41       -10.7254   43.3933    0.9276 O.3         1 O2N      -0.2947
     42 O42       -10.9760   45.7337    0.6180 O.3         1 O2N      -0.2890
     43 O43       -22.1870   52.7565   -2.0858 O.3         1 O2N      -0.3255
     44 O44       -21.4455   43.4400    0.5198 O.3         1 O2N      -0.3255
     45 H1        -16.8716   48.5118   -8.2567 H           1 O2N       0.0572
     46 H2        -14.8331   47.2360   -7.9237 H           1 O2N       0.0635
     47 H3        -18.7602   48.1630   -6.8180 H           1 O2N       0.0651
     48 H4        -14.6702   45.6568   -6.1403 H           1 O2N       0.0570
     49 H5        -13.3606   42.5476   -2.6548 H           1 O2N       0.0445
     50 H6        -21.8186   49.4257   -5.0878 H           1 O2N       0.0534
     51 H7        -20.7818   48.6163   -1.0693 H           1 O2N       0.0534
     52 H8        -18.9683   46.0703   -2.1807 H           1 O2N       0.0534
     53 H9        -23.1691   46.2648   -2.5306 H           1 O2N       0.0534
     54 H10       -11.9787   41.7503   -0.8533 H           1 O2N       0.0514
     55 H11       -22.3384   51.6904   -4.4803 H           1 O2N       0.0526
     56 H12       -21.3144   50.8701   -0.4872 H           1 O2N       0.0526
     57 H13       -19.1960   44.3934   -0.4690 H           1 O2N       0.0526
     58 H14       -23.3815   44.6198   -0.7874 H           1 O2N       0.0526
     59 H15       -16.7896   42.4143   -1.1042 H           1 O2N       0.0292
     60 H16       -15.9930   42.9505   -2.5208 H           1 O2N       0.0292
     61 H17       -16.7976   44.5291   -0.2382 H           1 O2N       0.0725
     62 H18        -9.5127   44.8364    1.7958 H           1 O2N       0.0973
     63 H19       -11.1606   44.7472    2.4388 H           1 O2N       0.0973
     64 H20       -21.4513   54.6612   -1.8234 H           1 O2N       0.0575
     65 H21       -20.6556   53.7566   -3.1169 H           1 O2N       0.0575
     66 H22       -20.3018   53.3843   -1.4064 H           1 O2N       0.0575
     67 H23       -21.8957   43.1594    2.5074 H           1 O2N       0.0575
     68 H24       -22.7318   44.5345    1.7771 H           1 O2N       0.0575
     69 H25       -20.9951   44.6445    2.1770 H           1 O2N       0.0575
     70 H26       -16.1053   44.0904   -4.5999 H           1 O2N       0.0995
     71 H27       -17.3260   44.8812   -3.6769 H           1 O2N       0.0995
     72 H28       -13.9396   44.2566   -4.1634 H           1 O2N       0.0966
     73 H29       -13.3738   45.8756   -3.9137 H           1 O2N       0.0966
     74 H30       -15.0510   45.9548   -1.1158 H           1 O2N       0.0998
     75 H31       -16.6200   46.3598   -1.7317 H           1 O2N       0.0998
     76 H32       -21.6208   47.1331   -4.3914 H           1 O2N       0.0837
     77 H33       -19.1315   48.2634   -4.1649 H           1 O2N       0.1893
     78 H34       -15.2614   46.5806   -3.4129 H           1 O2N       0.2082
@<TRIPOS>BOND
     1     1     2  ar
     2     3     1  ar
     3     4     2  ar
     4    15     3  ar
     5    19     4  ar
     6     5    10  ar
     7    20     5  ar
     8     6    11  ar
     9    17     6  ar
    10     7    12  ar
    11    17     7  ar
    12     8    13  ar
    13    18     8  ar
    14     9    14  ar
    15    18     9  ar
    16    10    21  ar
    17    11    23  ar
    18    12    23  ar
    19    13    24  ar
    20    14    24  ar
    21    15    19  ar
    22    27    15   1
    23    20    16  ar
    24    16    22  ar
    25    16    28   1
    26    35    17   1
    27    35    18   1
    28    19    32   1
    29    33    20   1
    30    22    21  ar
    31    21    41   1
    32    22    42   1
    33    23    43   1
    34    24    44   1
    35    26    25   2
    36    34    26   1
    37    36    27  am
    38    27    39   2
    39    28    38  ar
    40    28    40  ar
    41    29    41   1
    42    42    29   1
    43    43    30   1
    44    44    31   1
    45    32    37   1
    46    37    33   1
    47    37    34   1
    48    35    36   1
    49     1    45   1
    50     2    46   1
    51     3    47   1
    52     4    48   1
    53     5    49   1
    54     6    50   1
    55     7    51   1
    56     8    52   1
    57     9    53   1
    58    10    54   1
    59    11    55   1
    60    12    56   1
    61    13    57   1
    62    14    58   1
    63    25    59   1
    64    25    60   1
    65    26    61   1
    66    29    62   1
    67    29    63   1
    68    30    64   1
    69    30    65   1
    70    30    66   1
    71    31    67   1
    72    31    68   1
    73    31    69   1
    74    32    70   1
    75    32    71   1
    76    33    72   1
    77    33    73   1
    78    34    74   1
    79    34    75   1
    80    35    76   1
    81    36    77   1
    82    37    78   1
@<TRIPOS>SUBSTRUCTURE
     1  O2N      1

