@<TRIPOS>MOLECULE
3zso_ligand_039
    78    82
SMALL
GAST_HUCK
****
This file was generated by PARSER (from files_GN.cpp)

@<TRIPOS>ATOM
      1 C1        -18.5476   47.0268   -6.3266 C.ar        1 O2N      -0.0630
      2 C2        -18.4607   45.7856   -5.6777 C.ar        1 O2N      -0.0640
      3 C3        -18.0101   48.1691   -5.7171 C.ar        1 O2N      -0.0483
      4 C4        -17.7871   45.6749   -4.4498 C.ar        1 O2N      -0.0493
      5 C5        -11.8898   44.8885   -2.1104 C.ar        1 O2N      -0.0712
      6 C6        -18.0472   52.5255   -4.1748 C.ar        1 O2N      -0.0648
      7 C7        -19.0353   52.9632   -2.0007 C.ar        1 O2N      -0.0648
      8 C8        -15.3387   52.6617   -2.1092 C.ar        1 O2N      -0.0648
      9 C9        -15.0947   50.3666   -1.3666 C.ar        1 O2N      -0.0648
     10 C10       -10.8709   44.0734   -1.5821 C.ar        1 O2N      -0.0449
     11 C11       -18.7245   53.6360   -4.7071 C.ar        1 O2N      -0.0392
     12 C12       -19.7054   54.0826   -2.5280 C.ar        1 O2N      -0.0392
     13 C13       -13.9810   52.9005   -1.8255 C.ar        1 O2N      -0.0392
     14 C14       -13.7329   50.5952   -1.0964 C.ar        1 O2N      -0.0392
     15 C15       -17.3470   48.0821   -4.4676 C.ar        1 O2N       0.0566
     16 C16       -12.7315   45.3509    0.1307 C.ar        1 O2N       0.0376
     17 C17       -18.1778   52.1712   -2.8075 C.ar        1 O2N      -0.0192
     18 C18       -15.9198   51.3790   -1.9180 C.ar        1 O2N      -0.0192
     19 C19       -17.1770   46.8038   -3.8446 C.ar        1 O2N       0.0220
     20 C20       -12.8611   45.5292   -1.2845 C.ar        1 O2N      -0.0032
     21 C21       -10.7991   43.8927   -0.1969 C.ar        1 O2N       0.1200
     22 C22       -11.7032   44.5277    0.6391 C.ar        1 O2N       0.1327
     23 C23       -19.5317   54.4407   -3.8791 C.ar        1 O2N       0.0839
     24 C24       -13.1646   51.8572   -1.3515 C.ar        1 O2N       0.0839
     25 C25       -15.5279   43.8822   -5.7608 C.2         1 O2N      -0.1125
     26 C26       -15.1127   44.1830   -4.5238 C.2         1 O2N      -0.0447
     27 C27       -16.9032   49.2740   -3.9134 C.2         1 O2N       0.2037
     28 C28       -13.5585   45.9817    1.0724 C.2         1 O2N       0.0515
     29 C29       -10.2630   43.4395    1.8463 C.3         1 O2N       0.1864
     30 C30       -19.3045   56.7178   -4.3625 C.3         1 O2N       0.0579
     31 C31       -10.9712   51.6753   -2.1635 C.3         1 O2N       0.0579
     32 C32       -16.3267   46.5734   -2.6235 C.3         1 O2N       0.0086
     33 C33       -13.8683   46.4675   -1.9081 C.3         1 O2N       0.0003
     34 C34       -14.5612   45.4689   -4.1356 C.3         1 O2N      -0.0011
     35 C35       -17.3639   51.0591   -2.2077 C.3         1 O2N       0.0982
     36 N36       -17.5951   49.8212   -2.9177 N.am        1 O2N      -0.2653
     37 N37       -14.9863   45.8474   -2.7344 N.4         1 O2N       0.2715
     38 O38       -14.6617   45.3468    1.5217 O.co2       1 O2N      -0.5668
     39 O39       -15.9435   49.8316   -4.4251 O.2         1 O2N      -0.3883
     40 O40       -13.1002   47.0586    1.7536 O.co2       1 O2N      -0.5668
     41 O41        -9.9081   43.1468    0.4819 O.3         1 O2N      -0.2947
     42 O42       -11.4509   44.2485    1.9354 O.3         1 O2N      -0.2890
     43 O43       -20.1501   55.5518   -4.3777 O.3         1 O2N      -0.3255
     44 O44       -11.8409   52.0855   -1.0911 O.3         1 O2N      -0.3255
     45 H1        -19.0094   47.0998   -7.2401 H           1 O2N       0.0572
     46 H2        -18.8716   44.9582   -6.1148 H           1 O2N       0.0635
     47 H3        -18.1106   49.0716   -6.1991 H           1 O2N       0.0651
     48 H4        -17.7117   44.7501   -4.0170 H           1 O2N       0.0570
     49 H5        -11.8809   45.0384   -3.1167 H           1 O2N       0.0445
     50 H6        -17.4288   51.9961   -4.7904 H           1 O2N       0.0534
     51 H7        -19.1519   52.7520   -1.0058 H           1 O2N       0.0534
     52 H8        -15.8973   53.4464   -2.4443 H           1 O2N       0.0534
     53 H9        -15.4821   49.4461   -1.1534 H           1 O2N       0.0534
     54 H10       -10.1783   43.6298   -2.1898 H           1 O2N       0.0514
     55 H11       -18.6046   53.8811   -5.6920 H           1 O2N       0.0526
     56 H12       -20.2987   54.6535   -1.9225 H           1 O2N       0.0526
     57 H13       -13.5861   53.8330   -1.9678 H           1 O2N       0.0526
     58 H14       -13.1564   49.8424   -0.7137 H           1 O2N       0.0526
     59 H15       -15.8460   42.9616   -5.9647 H           1 O2N       0.0292
     60 H16       -15.5034   44.5473   -6.5000 H           1 O2N       0.0292
     61 H17       -15.0970   43.4531   -3.8456 H           1 O2N       0.0725
     62 H18        -9.4360   43.9657    2.3286 H           1 O2N       0.0973
     63 H19       -10.4350   42.5073    2.3842 H           1 O2N       0.0973
     64 H20       -19.8770   57.5619   -4.7478 H           1 O2N       0.0575
     65 H21       -18.4284   56.5823   -5.0025 H           1 O2N       0.0575
     66 H22       -18.9797   56.9630   -3.3475 H           1 O2N       0.0575
     67 H23        -9.9453   51.9119   -1.8802 H           1 O2N       0.0575
     68 H24       -11.1967   52.2085   -3.0907 H           1 O2N       0.0575
     69 H25       -11.0355   50.5986   -2.3401 H           1 O2N       0.0575
     70 H26       -16.9320   46.0031   -1.9144 H           1 O2N       0.0995
     71 H27       -16.1882   47.5368   -2.1426 H           1 O2N       0.0995
     72 H28       -13.3125   47.1871   -2.5082 H           1 O2N       0.0966
     73 H29       -14.3067   47.0553   -1.1014 H           1 O2N       0.0966
     74 H30       -14.7948   46.2590   -4.8512 H           1 O2N       0.0998
     75 H31       -13.4836   45.3379   -4.2177 H           1 O2N       0.0998
     76 H32       -17.7841   50.8575   -1.2164 H           1 O2N       0.0837
     77 H33       -18.3752   49.3221   -2.6282 H           1 O2N       0.1893
     78 H34       -15.1592   44.9551   -2.2636 H           1 O2N       0.2082
@<TRIPOS>BOND
     1     1     2  ar
     2     3     1  ar
     3     4     2  ar
     4    15     3  ar
     5    19     4  ar
     6     5    10  ar
     7    20     5  ar
     8     6    11  ar
     9    17     6  ar
    10     7    12  ar
    11    17     7  ar
    12     8    13  ar
    13    18     8  ar
    14     9    14  ar
    15    18     9  ar
    16    10    21  ar
    17    11    23  ar
    18    12    23  ar
    19    13    24  ar
    20    14    24  ar
    21    15    19  ar
    22    27    15   1
    23    20    16  ar
    24    16    22  ar
    25    16    28   1
    26    35    17   1
    27    35    18   1
    28    19    32   1
    29    33    20   1
    30    22    21  ar
    31    21    41   1
    32    22    42   1
    33    23    43   1
    34    24    44   1
    35    26    25   2
    36    34    26   1
    37    36    27  am
    38    27    39   2
    39    28    38  ar
    40    28    40  ar
    41    29    41   1
    42    42    29   1
    43    43    30   1
    44    44    31   1
    45    32    37   1
    46    37    33   1
    47    37    34   1
    48    35    36   1
    49     1    45   1
    50     2    46   1
    51     3    47   1
    52     4    48   1
    53     5    49   1
    54     6    50   1
    55     7    51   1
    56     8    52   1
    57     9    53   1
    58    10    54   1
    59    11    55   1
    60    12    56   1
    61    13    57   1
    62    14    58   1
    63    25    59   1
    64    25    60   1
    65    26    61   1
    66    29    62   1
    67    29    63   1
    68    30    64   1
    69    30    65   1
    70    30    66   1
    71    31    67   1
    72    31    68   1
    73    31    69   1
    74    32    70   1
    75    32    71   1
    76    33    72   1
    77    33    73   1
    78    34    74   1
    79    34    75   1
    80    35    76   1
    81    36    77   1
    82    37    78   1
@<TRIPOS>SUBSTRUCTURE
     1  O2N      1

