@<TRIPOS>MOLECULE
3zso_ligand_061
    78    82
SMALL
GAST_HUCK
****
This file was generated by PARSER (from files_GN.cpp)

@<TRIPOS>ATOM
      1 C1        -16.2383   50.6373   -6.7174 C.ar        1 O2N      -0.0630
      2 C2        -16.0989   49.2645   -6.9527 C.ar        1 O2N      -0.0640
      3 C3        -16.5027   51.1032   -5.4185 C.ar        1 O2N      -0.0483
      4 C4        -16.2737   48.3531   -5.8956 C.ar        1 O2N      -0.0493
      5 C5        -20.0125   49.2382   -2.8696 C.ar        1 O2N      -0.0712
      6 C6        -14.3578   52.9095   -1.4150 C.ar        1 O2N      -0.0648
      7 C7        -16.3924   53.3255   -0.1464 C.ar        1 O2N      -0.0648
      8 C8        -14.1111   50.6611    1.1169 C.ar        1 O2N      -0.0648
      9 C9        -14.8261   48.6996   -0.1127 C.ar        1 O2N      -0.0648
     10 C10       -20.6050   49.8565   -1.7503 C.ar        1 O2N      -0.0449
     11 C11       -14.0781   54.2898   -1.4165 C.ar        1 O2N      -0.0392
     12 C12       -16.1061   54.7035   -0.1397 C.ar        1 O2N      -0.0392
     13 C13       -13.2785   49.8547    1.9184 C.ar        1 O2N      -0.0392
     14 C14       -13.9868   47.8948    0.6733 C.ar        1 O2N      -0.0392
     15 C15       -16.6572   50.2008   -4.3345 C.ar        1 O2N       0.0566
     16 C16       -20.7008   47.0316   -2.0537 C.ar        1 O2N       0.0376
     17 C17       -15.5256   52.4075   -0.7875 C.ar        1 O2N      -0.0192
     18 C18       -14.8836   50.1062    0.0620 C.ar        1 O2N      -0.0192
     19 C19       -16.5999   48.7921   -4.5892 C.ar        1 O2N       0.0220
     20 C20       -20.0119   47.8223   -3.0283 C.ar        1 O2N      -0.0032
     21 C21       -21.2166   49.0487   -0.7763 C.ar        1 O2N       0.1200
     22 C22       -21.2632   47.6740   -0.9237 C.ar        1 O2N       0.1327
     23 C23       -14.9557   55.1928   -0.7907 C.ar        1 O2N       0.0839
     24 C24       -13.1941   48.4692    1.6797 C.ar        1 O2N       0.0839
     25 C25       -16.2512   43.9843   -2.0101 C.2         1 O2N      -0.1125
     26 C26       -16.6549   44.6835   -3.0708 C.2         1 O2N      -0.0447
     27 C27       -16.7770   50.7489   -3.0624 C.2         1 O2N       0.2037
     28 C28       -20.9187   45.6398   -2.1855 C.2         1 O2N       0.0515
     29 C29       -22.3434   48.2420    0.8874 C.3         1 O2N       0.1864
     30 C30       -15.3332   57.2728   -1.8134 C.3         1 O2N       0.0579
     31 C31       -11.0569   47.5757    2.0247 C.3         1 O2N       0.0579
     32 C32       -16.8704   47.7326   -3.5590 C.3         1 O2N       0.0086
     33 C33       -19.2726   47.2385   -4.2024 C.3         1 O2N       0.0003
     34 C34       -17.8759   45.4811   -3.0618 C.3         1 O2N      -0.0011
     35 C35       -15.8197   50.9348   -0.7793 C.3         1 O2N       0.0982
     36 N36       -15.8746   50.4486   -2.1413 N.am        1 O2N      -0.2653
     37 N37       -17.8883   46.6909   -3.9521 N.4         1 O2N       0.2715
     38 O38       -20.7787   44.7982   -1.1323 O.co2       1 O2N      -0.5668
     39 O39       -17.6435   51.5901   -2.8511 O.2         1 O2N      -0.3883
     40 O40       -21.5414   45.1569   -3.2810 O.co2       1 O2N      -0.5668
     41 O41       -21.8133   49.4699    0.3548 O.3         1 O2N      -0.2947
     42 O42       -21.9406   47.1084    0.1006 O.3         1 O2N      -0.2890
     43 O43       -14.6617   56.5310   -0.7796 O.3         1 O2N      -0.3255
     44 O44       -12.4193   47.6760    2.4749 O.3         1 O2N      -0.3255
     45 H1        -16.1163   51.3046   -7.4900 H           1 O2N       0.0572
     46 H2        -15.8829   48.9254   -7.8935 H           1 O2N       0.0635
     47 H3        -16.5524   52.1171   -5.2735 H           1 O2N       0.0651
     48 H4        -16.1715   47.3568   -6.1016 H           1 O2N       0.0570
     49 H5        -19.5716   49.8385   -3.5688 H           1 O2N       0.0445
     50 H6        -13.7035   52.2731   -1.8730 H           1 O2N       0.0534
     51 H7        -17.2340   52.9970    0.3301 H           1 O2N       0.0534
     52 H8        -14.1565   51.6571    1.3346 H           1 O2N       0.0534
     53 H9        -15.4008   48.2388   -0.8236 H           1 O2N       0.0534
     54 H10       -20.5954   50.8756   -1.6469 H           1 O2N       0.0514
     55 H11       -13.2296   54.6351   -1.8729 H           1 O2N       0.0526
     56 H12       -16.7350   55.3496    0.3418 H           1 O2N       0.0526
     57 H13       -12.7444   50.2744    2.6779 H           1 O2N       0.0526
     58 H14       -13.9607   46.8829    0.5179 H           1 O2N       0.0526
     59 H15       -15.4634   43.3850   -2.0741 H           1 O2N       0.0292
     60 H16       -16.7269   44.0299   -1.1378 H           1 O2N       0.0292
     61 H17       -16.1871   44.5589   -3.9429 H           1 O2N       0.0725
     62 H18       -23.4335   48.2969    0.9034 H           1 O2N       0.0973
     63 H19       -21.9925   48.1052    1.9131 H           1 O2N       0.0973
     64 H20       -14.9955   58.3073   -1.7585 H           1 O2N       0.0575
     65 H21       -16.4163   57.2614   -1.6704 H           1 O2N       0.0575
     66 H22       -15.0923   56.8899   -2.8086 H           1 O2N       0.0575
     67 H23       -10.5252   46.9083    2.7030 H           1 O2N       0.0575
     68 H24       -10.5588   48.5491    2.0438 H           1 O2N       0.0575
     69 H25       -11.0003   47.1558    1.0174 H           1 O2N       0.0575
     70 H26       -17.1785   48.1649   -2.6098 H           1 O2N       0.0995
     71 H27       -15.9066   47.2455   -3.3790 H           1 O2N       0.0995
     72 H28       -19.1940   47.9802   -4.9983 H           1 O2N       0.0966
     73 H29       -19.8752   46.4467   -4.6464 H           1 O2N       0.0966
     74 H30       -18.1139   45.7833   -2.0381 H           1 O2N       0.0998
     75 H31       -18.6506   44.7907   -3.3993 H           1 O2N       0.0998
     76 H32       -16.8131   50.7585   -0.3491 H           1 O2N       0.0837
     77 H33       -15.1865   49.8168   -2.4014 H           1 O2N       0.1893
     78 H34       -17.5802   46.3349   -4.8594 H           1 O2N       0.2082
@<TRIPOS>BOND
     1     1     2  ar
     2     3     1  ar
     3     4     2  ar
     4    15     3  ar
     5    19     4  ar
     6     5    10  ar
     7    20     5  ar
     8     6    11  ar
     9    17     6  ar
    10     7    12  ar
    11    17     7  ar
    12     8    13  ar
    13    18     8  ar
    14     9    14  ar
    15    18     9  ar
    16    10    21  ar
    17    11    23  ar
    18    12    23  ar
    19    13    24  ar
    20    14    24  ar
    21    15    19  ar
    22    27    15   1
    23    20    16  ar
    24    16    22  ar
    25    16    28   1
    26    35    17   1
    27    35    18   1
    28    19    32   1
    29    33    20   1
    30    22    21  ar
    31    21    41   1
    32    22    42   1
    33    23    43   1
    34    24    44   1
    35    26    25   2
    36    34    26   1
    37    36    27  am
    38    27    39   2
    39    28    38  ar
    40    28    40  ar
    41    29    41   1
    42    42    29   1
    43    43    30   1
    44    44    31   1
    45    32    37   1
    46    37    33   1
    47    37    34   1
    48    35    36   1
    49     1    45   1
    50     2    46   1
    51     3    47   1
    52     4    48   1
    53     5    49   1
    54     6    50   1
    55     7    51   1
    56     8    52   1
    57     9    53   1
    58    10    54   1
    59    11    55   1
    60    12    56   1
    61    13    57   1
    62    14    58   1
    63    25    59   1
    64    25    60   1
    65    26    61   1
    66    29    62   1
    67    29    63   1
    68    30    64   1
    69    30    65   1
    70    30    66   1
    71    31    67   1
    72    31    68   1
    73    31    69   1
    74    32    70   1
    75    32    71   1
    76    33    72   1
    77    33    73   1
    78    34    74   1
    79    34    75   1
    80    35    76   1
    81    36    77   1
    82    37    78   1
@<TRIPOS>SUBSTRUCTURE
     1  O2N      1

