@<TRIPOS>MOLECULE
3zso_ligand_046
    78    82
SMALL
GAST_HUCK
****
This file was generated by PARSER (from files_GN.cpp)

@<TRIPOS>ATOM
      1 C1        -17.6387   43.2120   -6.2926 C.ar        1 O2N      -0.0630
      2 C2        -16.2962   42.8334   -6.2121 C.ar        1 O2N      -0.0640
      3 C3        -18.0527   44.4423   -5.7624 C.ar        1 O2N      -0.0483
      4 C4        -15.3787   43.6853   -5.5930 C.ar        1 O2N      -0.0493
      5 C5        -11.7098   44.7884   -1.9944 C.ar        1 O2N      -0.0712
      6 C6        -20.0976   45.7292   -1.4107 C.ar        1 O2N      -0.0648
      7 C7        -21.1364   47.9144   -1.2565 C.ar        1 O2N      -0.0648
      8 C8        -21.5347   47.4141   -4.7656 C.ar        1 O2N      -0.0648
      9 C9        -20.3082   49.4996   -4.5555 C.ar        1 O2N      -0.0648
     10 C10       -10.7158   43.9770   -1.4133 C.ar        1 O2N      -0.0449
     11 C11       -20.7632   45.3236   -0.2479 C.ar        1 O2N      -0.0392
     12 C12       -21.8250   47.5041   -0.1057 C.ar        1 O2N      -0.0392
     13 C13       -22.4116   48.0217   -5.6849 C.ar        1 O2N      -0.0392
     14 C14       -21.1831   50.1107   -5.4756 C.ar        1 O2N      -0.0392
     15 C15       -17.1564   45.3058   -5.0689 C.ar        1 O2N       0.0566
     16 C16       -12.5958   45.3420    0.2200 C.ar        1 O2N       0.0376
     17 C17       -20.2612   47.0349   -1.9467 C.ar        1 O2N      -0.0192
     18 C18       -20.4740   48.1439   -4.1779 C.ar        1 O2N      -0.0192
     19 C19       -15.7827   44.9103   -4.9873 C.ar        1 O2N       0.0220
     20 C20       -12.6996   45.4317   -1.2040 C.ar        1 O2N      -0.0032
     21 C21       -10.6763   43.8549   -0.0182 C.ar        1 O2N       0.1200
     22 C22       -11.5872   44.5289    0.7788 C.ar        1 O2N       0.1327
     23 C23       -21.6329   46.2105    0.4206 C.ar        1 O2N       0.0839
     24 C24       -22.2329   49.3700   -6.0518 C.ar        1 O2N       0.0839
     25 C25       -16.7842   44.1715   -0.8755 C.2         1 O2N      -0.1125
     26 C26       -16.1680   43.5129   -1.8633 C.2         1 O2N      -0.0447
     27 C27       -17.6813   46.4657   -4.4876 C.2         1 O2N       0.2037
     28 C28       -13.4672   45.9930    1.1183 C.2         1 O2N       0.0515
     29 C29       -10.2302   43.4105    2.0472 C.3         1 O2N       0.1864
     30 C30       -21.5106   45.3598    2.6098 C.3         1 O2N       0.0579
     31 C31       -22.7395   49.9068   -8.2803 C.3         1 O2N       0.0579
     32 C32       -14.7501   45.6480   -4.1921 C.3         1 O2N       0.0086
     33 C33       -13.8042   46.1720   -1.9055 C.3         1 O2N       0.0003
     34 C34       -14.8640   43.8978   -2.3688 C.3         1 O2N      -0.0011
     35 C35       -19.5507   47.5127   -3.1798 C.3         1 O2N       0.0982
     36 N36       -18.8583   46.4564   -3.8661 N.am        1 O2N      -0.2653
     37 N37       -14.8009   45.3720   -2.7123 N.4         1 O2N       0.2715
     38 O38       -13.0281   47.0691    1.8106 O.co2       1 O2N      -0.5668
     39 O39       -17.1461   47.5596   -4.6746 O.2         1 O2N      -0.3883
     40 O40       -14.5564   45.3490    1.5946 O.co2       1 O2N      -0.5668
     41 O41        -9.8196   43.1096    0.7019 O.3         1 O2N      -0.2947
     42 O42       -11.3984   44.2489    2.0822 O.3         1 O2N      -0.2890
     43 O43       -22.3366   45.8160    1.5239 O.3         1 O2N      -0.3255
     44 O44       -23.1200   49.9769   -6.8965 O.3         1 O2N      -0.3255
     45 H1        -18.3175   42.6007   -6.7521 H           1 O2N       0.0572
     46 H2        -15.9876   41.9379   -6.6064 H           1 O2N       0.0635
     47 H3        -19.0349   44.6962   -5.8945 H           1 O2N       0.0651
     48 H4        -14.4048   43.3757   -5.5486 H           1 O2N       0.0570
     49 H5        -11.7138   44.8789   -3.0101 H           1 O2N       0.0445
     50 H6        -19.4845   45.0522   -1.8641 H           1 O2N       0.0534
     51 H7        -21.2888   48.8647   -1.6057 H           1 O2N       0.0534
     52 H8        -21.6858   46.4323   -4.5153 H           1 O2N       0.0534
     53 H9        -19.5534   50.0629   -4.1554 H           1 O2N       0.0534
     54 H10       -10.0367   43.4801   -1.9980 H           1 O2N       0.0514
     55 H11       -20.6254   44.3744    0.1140 H           1 O2N       0.0526
     56 H12       -22.4744   48.1475    0.3569 H           1 O2N       0.0526
     57 H13       -23.1872   47.4818   -6.0833 H           1 O2N       0.0526
     58 H14       -21.0567   51.0962   -5.7193 H           1 O2N       0.0526
     59 H15       -17.6294   43.8195   -0.4924 H           1 O2N       0.0292
     60 H16       -16.4022   45.0065   -0.4919 H           1 O2N       0.0292
     61 H17       -16.5702   42.6645   -2.1988 H           1 O2N       0.0725
     62 H18        -9.4132   43.9169    2.5655 H           1 O2N       0.0973
     63 H19       -10.4517   42.4797    2.5692 H           1 O2N       0.0973
     64 H20       -22.1543   45.1899    3.4725 H           1 O2N       0.0575
     65 H21       -20.7525   46.1001    2.8839 H           1 O2N       0.0575
     66 H22       -21.0217   44.4153    2.3566 H           1 O2N       0.0575
     67 H23       -23.4938   50.4354   -8.8649 H           1 O2N       0.0575
     68 H24       -22.6999   48.8716   -8.6297 H           1 O2N       0.0575
     69 H25       -21.7739   50.3895   -8.4534 H           1 O2N       0.0575
     70 H26       -14.8803   46.7091   -4.3940 H           1 O2N       0.0995
     71 H27       -13.7468   45.4098   -4.5498 H           1 O2N       0.0995
     72 H28       -13.3232   46.9370   -2.5205 H           1 O2N       0.0966
     73 H29       -14.4025   46.7262   -1.1786 H           1 O2N       0.0966
     74 H30       -14.6223   43.2866   -3.2440 H           1 O2N       0.0998
     75 H31       -14.1344   43.6102   -1.6088 H           1 O2N       0.0998
     76 H32       -18.8266   48.2539   -2.8326 H           1 O2N       0.0837
     77 H33       -19.3178   45.6003   -3.8472 H           1 O2N       0.1893
     78 H34       -15.7069   45.7582   -2.4241 H           1 O2N       0.2082
@<TRIPOS>BOND
     1     1     2  ar
     2     3     1  ar
     3     4     2  ar
     4    15     3  ar
     5    19     4  ar
     6     5    10  ar
     7    20     5  ar
     8     6    11  ar
     9    17     6  ar
    10     7    12  ar
    11    17     7  ar
    12     8    13  ar
    13    18     8  ar
    14     9    14  ar
    15    18     9  ar
    16    10    21  ar
    17    11    23  ar
    18    12    23  ar
    19    13    24  ar
    20    14    24  ar
    21    15    19  ar
    22    27    15   1
    23    20    16  ar
    24    16    22  ar
    25    16    28   1
    26    35    17   1
    27    35    18   1
    28    19    32   1
    29    33    20   1
    30    22    21  ar
    31    21    41   1
    32    22    42   1
    33    23    43   1
    34    24    44   1
    35    26    25   2
    36    34    26   1
    37    36    27  am
    38    27    39   2
    39    28    38  ar
    40    28    40  ar
    41    29    41   1
    42    42    29   1
    43    43    30   1
    44    44    31   1
    45    32    37   1
    46    37    33   1
    47    37    34   1
    48    35    36   1
    49     1    45   1
    50     2    46   1
    51     3    47   1
    52     4    48   1
    53     5    49   1
    54     6    50   1
    55     7    51   1
    56     8    52   1
    57     9    53   1
    58    10    54   1
    59    11    55   1
    60    12    56   1
    61    13    57   1
    62    14    58   1
    63    25    59   1
    64    25    60   1
    65    26    61   1
    66    29    62   1
    67    29    63   1
    68    30    64   1
    69    30    65   1
    70    30    66   1
    71    31    67   1
    72    31    68   1
    73    31    69   1
    74    32    70   1
    75    32    71   1
    76    33    72   1
    77    33    73   1
    78    34    74   1
    79    34    75   1
    80    35    76   1
    81    36    77   1
    82    37    78   1
@<TRIPOS>SUBSTRUCTURE
     1  O2N      1

