@<TRIPOS>MOLECULE
3zso_ligand_006
    78    82
SMALL
GAST_HUCK
****
This file was generated by PARSER (from files_GN.cpp)

@<TRIPOS>ATOM
      1 C1        -11.9911   43.7020   -1.3938 C.ar        1 O2N      -0.0630
      2 C2        -12.8483   43.0512   -2.2888 C.ar        1 O2N      -0.0640
      3 C3        -12.4200   44.8720   -0.7427 C.ar        1 O2N      -0.0483
      4 C4        -14.1030   43.6066   -2.5791 C.ar        1 O2N      -0.0493
      5 C5        -16.5741   48.5127   -5.6438 C.ar        1 O2N      -0.0712
      6 C6        -12.7306   50.4941   -0.7225 C.ar        1 O2N      -0.0648
      7 C7        -15.1197   50.8788   -0.4781 C.ar        1 O2N      -0.0648
      8 C8        -13.4175   49.9093    2.6940 C.ar        1 O2N      -0.0648
      9 C9        -12.2406   47.8894    2.0558 C.ar        1 O2N      -0.0648
     10 C10       -16.6314   49.1914   -6.8744 C.ar        1 O2N      -0.0449
     11 C11       -12.6052   51.7108   -1.4154 C.ar        1 O2N      -0.0392
     12 C12       -14.9943   52.0956   -1.1724 C.ar        1 O2N      -0.0392
     13 C13       -12.6374   49.9991    3.8633 C.ar        1 O2N      -0.0392
     14 C14       -11.4562   47.9781    3.2214 C.ar        1 O2N      -0.0392
     15 C15       -13.7068   45.4164   -0.9938 C.ar        1 O2N       0.0566
     16 C16       -18.4156   47.0434   -6.3287 C.ar        1 O2N       0.0376
     17 C17       -13.9884   50.0603   -0.2369 C.ar        1 O2N      -0.0192
     18 C18       -13.2485   48.8439    1.7722 C.ar        1 O2N      -0.0192
     19 C19       -14.5529   44.8093   -1.9734 C.ar        1 O2N       0.0220
     20 C20       -17.4192   47.4073   -5.3613 C.ar        1 O2N      -0.0032
     21 C21       -17.5733   48.7824   -7.8287 C.ar        1 O2N       0.1200
     22 C22       -18.4576   47.7506   -7.5546 C.ar        1 O2N       0.1327
     23 C23       -13.7389   52.5137   -1.6527 C.ar        1 O2N       0.0839
     24 C24       -11.6642   49.0230    4.1414 C.ar        1 O2N       0.0839
     25 C25       -16.5706   43.4264   -5.0138 C.2         1 O2N      -0.1125
     26 C26       -15.7959   44.3593   -5.5887 C.2         1 O2N      -0.0447
     27 C27       -14.1437   46.4069   -0.1302 C.2         1 O2N       0.2037
     28 C28       -19.3689   46.0183   -6.1304 C.2         1 O2N       0.0515
     29 C29       -18.6266   48.3034   -9.6413 C.3         1 O2N       0.1864
     30 C30       -13.5230   53.5962   -3.7226 C.3         1 O2N       0.0579
     31 C31       -11.4056   48.4513    6.4041 C.3         1 O2N       0.0579
     32 C32       -15.8669   45.3890   -2.4250 C.3         1 O2N       0.0086
     33 C33       -17.2296   46.7317   -4.0345 C.3         1 O2N       0.0003
     34 C34       -15.1778   45.4911   -4.9050 C.3         1 O2N      -0.0011
     35 C35       -14.1113   48.7907    0.5415 C.3         1 O2N       0.0982
     36 N36       -13.8541   47.6871   -0.3519 N.am        1 O2N      -0.2653
     37 N37       -15.8647   46.1518   -3.7353 N.4         1 O2N       0.2715
     38 O38       -20.6520   46.1709   -6.5322 O.co2       1 O2N      -0.5668
     39 O39       -14.6813   46.0480    0.9145 O.2         1 O2N      -0.3883
     40 O40       -18.9650   44.7538   -5.8621 O.co2       1 O2N      -0.5668
     41 O41       -17.7513   49.2900   -9.0619 O.3         1 O2N      -0.2947
     42 O42       -19.2738   47.5387   -8.6112 O.3         1 O2N      -0.2890
     43 O43       -13.6131   53.7170   -2.2921 O.3         1 O2N      -0.3255
     44 O44       -10.8778   49.1398    5.2573 O.3         1 O2N      -0.3255
     45 H1        -11.0747   43.3023   -1.1797 H           1 O2N       0.0572
     46 H2        -12.5479   42.1844   -2.7483 H           1 O2N       0.0635
     47 H3        -11.7868   45.2986   -0.0622 H           1 O2N       0.0651
     48 H4        -14.6942   43.1142   -3.2465 H           1 O2N       0.0570
     49 H5        -15.8832   48.8202   -4.9583 H           1 O2N       0.0445
     50 H6        -11.8937   49.9315   -0.5595 H           1 O2N       0.0534
     51 H7        -16.0425   50.6030   -0.1344 H           1 O2N       0.0534
     52 H8        -14.1127   50.6401    2.5162 H           1 O2N       0.0534
     53 H9        -12.0530   47.1235    1.4126 H           1 O2N       0.0534
     54 H10       -15.9934   49.9622   -7.0753 H           1 O2N       0.0514
     55 H11       -11.6866   52.0152   -1.7450 H           1 O2N       0.0526
     56 H12       -15.8204   52.6826   -1.3200 H           1 O2N       0.0526
     57 H13       -12.7765   50.7822    4.5097 H           1 O2N       0.0526
     58 H14       -10.7303   47.2793    3.3965 H           1 O2N       0.0526
     59 H15       -16.8901   42.6526   -5.5616 H           1 O2N       0.0292
     60 H16       -16.8652   43.5156   -4.0627 H           1 O2N       0.0292
     61 H17       -15.5701   44.2310   -6.5553 H           1 O2N       0.0725
     62 H18       -18.0438   47.6294  -10.2781 H           1 O2N       0.0973
     63 H19       -19.3765   48.7968  -10.2622 H           1 O2N       0.0973
     64 H20       -13.4283   54.5980   -4.1419 H           1 O2N       0.0575
     65 H21       -14.4214   53.1343   -4.1403 H           1 O2N       0.0575
     66 H22       -12.6432   53.0194   -4.0199 H           1 O2N       0.0575
     67 H23       -10.7316   48.6223    7.2431 H           1 O2N       0.0575
     68 H24       -11.4613   47.3744    6.2289 H           1 O2N       0.0575
     69 H25       -12.3948   48.8284    6.6768 H           1 O2N       0.0575
     70 H26       -16.2123   46.0708   -1.6477 H           1 O2N       0.0995
     71 H27       -16.6112   44.5870   -2.4630 H           1 O2N       0.0995
     72 H28       -17.9737   45.9496   -3.8888 H           1 O2N       0.0966
     73 H29       -17.4445   47.4877   -3.2766 H           1 O2N       0.0966
     74 H30       -15.0428   46.2725   -5.6614 H           1 O2N       0.0998
     75 H31       -14.1590   45.2052   -4.6410 H           1 O2N       0.0998
     76 H32       -15.1440   48.6824    0.8926 H           1 O2N       0.0837
     77 H33       -13.4287   47.8969   -1.2034 H           1 O2N       0.1893
     78 H34       -15.2730   46.9668   -3.5437 H           1 O2N       0.2082
@<TRIPOS>BOND
     1     1     2  ar
     2     3     1  ar
     3     4     2  ar
     4    15     3  ar
     5    19     4  ar
     6     5    10  ar
     7    20     5  ar
     8     6    11  ar
     9    17     6  ar
    10     7    12  ar
    11    17     7  ar
    12     8    13  ar
    13    18     8  ar
    14     9    14  ar
    15    18     9  ar
    16    10    21  ar
    17    11    23  ar
    18    12    23  ar
    19    13    24  ar
    20    14    24  ar
    21    15    19  ar
    22    27    15   1
    23    20    16  ar
    24    16    22  ar
    25    16    28   1
    26    35    17   1
    27    35    18   1
    28    19    32   1
    29    33    20   1
    30    22    21  ar
    31    21    41   1
    32    22    42   1
    33    23    43   1
    34    24    44   1
    35    26    25   2
    36    34    26   1
    37    36    27  am
    38    27    39   2
    39    28    38  ar
    40    28    40  ar
    41    29    41   1
    42    42    29   1
    43    43    30   1
    44    44    31   1
    45    32    37   1
    46    37    33   1
    47    37    34   1
    48    35    36   1
    49     1    45   1
    50     2    46   1
    51     3    47   1
    52     4    48   1
    53     5    49   1
    54     6    50   1
    55     7    51   1
    56     8    52   1
    57     9    53   1
    58    10    54   1
    59    11    55   1
    60    12    56   1
    61    13    57   1
    62    14    58   1
    63    25    59   1
    64    25    60   1
    65    26    61   1
    66    29    62   1
    67    29    63   1
    68    30    64   1
    69    30    65   1
    70    30    66   1
    71    31    67   1
    72    31    68   1
    73    31    69   1
    74    32    70   1
    75    32    71   1
    76    33    72   1
    77    33    73   1
    78    34    74   1
    79    34    75   1
    80    35    76   1
    81    36    77   1
    82    37    78   1
@<TRIPOS>SUBSTRUCTURE
     1  O2N      1

