@<TRIPOS>MOLECULE
3zso_ligand_005
    78    82
SMALL
GAST_HUCK
****
This file was generated by PARSER (from files_GN.cpp)

@<TRIPOS>ATOM
      1 C1        -15.6880   47.1218   -7.0336 C.ar        1 O2N      -0.0630
      2 C2        -15.5481   45.9414   -6.2943 C.ar        1 O2N      -0.0640
      3 C3        -16.1188   48.2965   -6.3974 C.ar        1 O2N      -0.0483
      4 C4        -15.7806   45.9491   -4.9101 C.ar        1 O2N      -0.0493
      5 C5        -12.2199   45.0656   -2.2952 C.ar        1 O2N      -0.0712
      6 C6        -19.1161   50.7615   -2.1535 C.ar        1 O2N      -0.0648
      7 C7        -17.6556   52.1488   -0.8075 C.ar        1 O2N      -0.0648
      8 C8        -18.4533   53.0179   -4.4741 C.ar        1 O2N      -0.0648
      9 C9        -16.1219   52.8625   -5.1218 C.ar        1 O2N      -0.0648
     10 C10       -11.1787   44.2218   -1.8744 C.ar        1 O2N      -0.0449
     11 C11       -20.1044   50.8262   -1.1529 C.ar        1 O2N      -0.0392
     12 C12       -18.6336   52.1989    0.2043 C.ar        1 O2N      -0.0392
     13 C13       -18.7037   53.8646   -5.5680 C.ar        1 O2N      -0.0392
     14 C14       -16.3663   53.7164   -6.2116 C.ar        1 O2N      -0.0392
     15 C15       -16.4563   48.2984   -5.0148 C.ar        1 O2N       0.0566
     16 C16       -12.8489   45.5041    0.0322 C.ar        1 O2N       0.0376
     17 C17       -17.8811   51.4459   -2.0185 C.ar        1 O2N      -0.0192
     18 C18       -17.1562   52.4951   -4.2224 C.ar        1 O2N      -0.0192
     19 C19       -16.2298   47.1177   -4.2329 C.ar        1 O2N       0.0220
     20 C20       -13.0745   45.7143   -1.3590 C.ar        1 O2N      -0.0032
     21 C21       -10.9840   44.0248   -0.5010 C.ar        1 O2N       0.1200
     22 C22       -11.7975   44.6479    0.4310 C.ar        1 O2N       0.1327
     23 C23       -19.8785   51.5688    0.0205 C.ar        1 O2N       0.0839
     24 C24       -17.6587   54.2312   -6.4368 C.ar        1 O2N       0.0839
     25 C25       -16.3454   43.1497   -3.6392 C.2         1 O2N      -0.1125
     26 C26       -16.7654   44.0620   -2.7748 C.2         1 O2N      -0.0447
     27 C27       -17.0516   49.4642   -4.5414 C.2         1 O2N       0.2037
     28 C28       -13.6484   46.0847    1.0301 C.2         1 O2N       0.0515
     29 C29       -10.3397   43.4165    1.4692 C.3         1 O2N       0.1864
     30 C30       -21.2939   52.9704    1.2607 C.3         1 O2N       0.0579
     31 C31       -17.6504   56.4091   -7.3046 C.3         1 O2N       0.0579
     32 C32       -16.4952   47.0160   -2.7494 C.3         1 O2N       0.0086
     33 C33       -14.1652   46.5975   -1.8823 C.3         1 O2N       0.0003
     34 C34       -15.9061   44.6713   -1.7730 C.3         1 O2N      -0.0011
     35 C35       -16.8602   51.5102   -3.1241 C.3         1 O2N       0.0982
     36 N36       -16.4530   50.2187   -3.6279 N.am        1 O2N      -0.2653
     37 N37       -15.6100   46.1531   -1.8642 N.4         1 O2N       0.2715
     38 O38       -14.5388   45.2872    1.6567 O.co2       1 O2N      -0.5668
     39 O39       -18.0485   49.8747   -5.1281 O.2         1 O2N      -0.3883
     40 O40       -13.1408   47.1063    1.7545 O.co2       1 O2N      -0.5668
     41 O41       -10.0472   43.2488    0.0714 O.3         1 O2N      -0.2947
     42 O42       -11.4460   44.3114    1.6890 O.3         1 O2N      -0.2890
     43 O43       -20.8443   51.6320    0.9889 O.3         1 O2N      -0.3255
     44 O44       -17.9185   55.0146   -7.5271 O.3         1 O2N      -0.3255
     45 H1        -15.4910   47.1275   -8.0354 H           1 O2N       0.0572
     46 H2        -15.2721   45.0763   -6.7549 H           1 O2N       0.0635
     47 H3        -16.2099   49.1522   -6.9599 H           1 O2N       0.0651
     48 H4        -15.6021   45.0712   -4.3940 H           1 O2N       0.0570
     49 H5        -12.3524   45.1977   -3.3009 H           1 O2N       0.0445
     50 H6        -19.3329   50.2339   -2.9952 H           1 O2N       0.0534
     51 H7        -16.7809   52.6566   -0.6551 H           1 O2N       0.0534
     52 H8        -19.2451   52.7636   -3.8819 H           1 O2N       0.0534
     53 H9        -15.1768   52.4943   -4.9953 H           1 O2N       0.0534
     54 H10       -10.5764   43.7602   -2.5584 H           1 O2N       0.0514
     55 H11       -20.9971   50.3463   -1.2883 H           1 O2N       0.0526
     56 H12       -18.4466   52.7220    1.0612 H           1 O2N       0.0526
     57 H13       -19.6540   54.2049   -5.7430 H           1 O2N       0.0526
     58 H14       -15.6035   53.9589   -6.8487 H           1 O2N       0.0526
     59 H15       -16.9709   42.7478   -4.2976 H           1 O2N       0.0292
     60 H16       -15.3939   42.8565   -3.6397 H           1 O2N       0.0292
     61 H17       -17.7185   44.3325   -2.7967 H           1 O2N       0.0725
     62 H18        -9.4552   43.8128    1.9718 H           1 O2N       0.0973
     63 H19       -10.5760   42.4417    1.9011 H           1 O2N       0.0973
     64 H20       -22.0556   52.9220    2.0377 H           1 O2N       0.0575
     65 H21       -21.7384   53.4290    0.3723 H           1 O2N       0.0575
     66 H22       -20.4788   53.6018    1.6253 H           1 O2N       0.0575
     67 H23       -17.8916   56.9517   -8.2181 H           1 O2N       0.0575
     68 H24       -16.5936   56.5794   -7.0754 H           1 O2N       0.0575
     69 H25       -18.2681   56.8103   -6.4957 H           1 O2N       0.0575
     70 H26       -17.5419   46.7354   -2.6239 H           1 O2N       0.0995
     71 H27       -16.4270   48.0090   -2.3094 H           1 O2N       0.0995
     72 H28       -13.8911   46.8761   -2.9001 H           1 O2N       0.0966
     73 H29       -14.1179   47.5256   -1.3060 H           1 O2N       0.0966
     74 H30       -14.9861   44.0864   -1.6976 H           1 O2N       0.0998
     75 H31       -16.4145   44.5124   -0.8191 H           1 O2N       0.0998
     76 H32       -15.9407   51.8796   -2.6484 H           1 O2N       0.0837
     77 H33       -15.6002   49.8946   -3.3025 H           1 O2N       0.1893
     78 H34       -15.9258   46.4524   -0.9392 H           1 O2N       0.2082
@<TRIPOS>BOND
     1     1     2  ar
     2     3     1  ar
     3     4     2  ar
     4    15     3  ar
     5    19     4  ar
     6     5    10  ar
     7    20     5  ar
     8     6    11  ar
     9    17     6  ar
    10     7    12  ar
    11    17     7  ar
    12     8    13  ar
    13    18     8  ar
    14     9    14  ar
    15    18     9  ar
    16    10    21  ar
    17    11    23  ar
    18    12    23  ar
    19    13    24  ar
    20    14    24  ar
    21    15    19  ar
    22    27    15   1
    23    20    16  ar
    24    16    22  ar
    25    16    28   1
    26    35    17   1
    27    35    18   1
    28    19    32   1
    29    33    20   1
    30    22    21  ar
    31    21    41   1
    32    22    42   1
    33    23    43   1
    34    24    44   1
    35    26    25   2
    36    34    26   1
    37    36    27  am
    38    27    39   2
    39    28    38  ar
    40    28    40  ar
    41    29    41   1
    42    42    29   1
    43    43    30   1
    44    44    31   1
    45    32    37   1
    46    37    33   1
    47    37    34   1
    48    35    36   1
    49     1    45   1
    50     2    46   1
    51     3    47   1
    52     4    48   1
    53     5    49   1
    54     6    50   1
    55     7    51   1
    56     8    52   1
    57     9    53   1
    58    10    54   1
    59    11    55   1
    60    12    56   1
    61    13    57   1
    62    14    58   1
    63    25    59   1
    64    25    60   1
    65    26    61   1
    66    29    62   1
    67    29    63   1
    68    30    64   1
    69    30    65   1
    70    30    66   1
    71    31    67   1
    72    31    68   1
    73    31    69   1
    74    32    70   1
    75    32    71   1
    76    33    72   1
    77    33    73   1
    78    34    74   1
    79    34    75   1
    80    35    76   1
    81    36    77   1
    82    37    78   1
@<TRIPOS>SUBSTRUCTURE
     1  O2N      1

