@<TRIPOS>MOLECULE
3zso_ligand_050
    78    82
SMALL
GAST_HUCK
****
This file was generated by PARSER (from files_GN.cpp)

@<TRIPOS>ATOM
      1 C1        -16.7186   50.9080   -3.6372 C.ar        1 O2N      -0.0630
      2 C2        -16.2024   50.3704   -2.4492 C.ar        1 O2N      -0.0640
      3 C3        -17.3067   50.0629   -4.5880 C.ar        1 O2N      -0.0483
      4 C4        -16.2419   48.9814   -2.2242 C.ar        1 O2N      -0.0493
      5 C5        -12.4865   44.9318   -2.4818 C.ar        1 O2N      -0.0712
      6 C6        -20.8888   49.6290   -7.3710 C.ar        1 O2N      -0.0648
      7 C7        -20.0851   48.1831   -9.1452 C.ar        1 O2N      -0.0648
      8 C8        -20.9870   45.1323   -6.2318 C.ar        1 O2N      -0.0648
      9 C9        -22.2083   47.1574   -5.6991 C.ar        1 O2N      -0.0648
     10 C10       -11.4380   44.0838   -2.0802 C.ar        1 O2N      -0.0449
     11 C11       -21.2329   50.6078   -8.3194 C.ar        1 O2N      -0.0392
     12 C12       -20.4166   49.1667  -10.0956 C.ar        1 O2N      -0.0392
     13 C13       -22.0566   44.3569   -5.7457 C.ar        1 O2N      -0.0392
     14 C14       -23.2862   46.3848   -5.2287 C.ar        1 O2N      -0.0392
     15 C15       -17.3370   48.6636   -4.3852 C.ar        1 O2N       0.0566
     16 C16       -13.0160   45.4316   -0.1469 C.ar        1 O2N       0.0376
     17 C17       -20.3066   48.3954   -7.7604 C.ar        1 O2N      -0.0192
     18 C18       -21.0438   46.5486   -6.2323 C.ar        1 O2N      -0.0192
     19 C19       -16.7711   48.1018   -3.1954 C.ar        1 O2N       0.0220
     20 C20       -13.3110   45.6017   -1.5359 C.ar        1 O2N      -0.0032
     21 C21       -11.1897   43.9127   -0.7118 C.ar        1 O2N       0.1200
     22 C22       -11.9528   44.5758    0.2355 C.ar        1 O2N       0.1327
     23 C23       -20.9805   50.3907   -9.6872 C.ar        1 O2N       0.0839
     24 C24       -23.2244   44.9798   -5.2651 C.ar        1 O2N       0.0839
     25 C25       -15.1308   44.1977   -4.5572 C.2         1 O2N      -0.1125
     26 C26       -15.8456   43.7634   -3.5047 C.2         1 O2N      -0.0447
     27 C27       -17.8804   47.8944   -5.4060 C.2         1 O2N       0.2037
     28 C28       -13.7437   46.0720    0.8683 C.2         1 O2N       0.0515
     29 C29       -10.4002   43.4146    1.2442 C.3         1 O2N       0.1864
     30 C30       -20.3309   52.3689  -10.7699 C.3         1 O2N       0.0579
     31 C31       -25.2041   43.8331   -5.7874 C.3         1 O2N       0.0579
     32 C32       -16.7995   46.6218   -2.9597 C.3         1 O2N       0.0086
     33 C33       -14.4357   46.4605   -2.0421 C.3         1 O2N       0.0003
     34 C34       -15.9727   44.4154   -2.1990 C.3         1 O2N      -0.0011
     35 C35       -19.8943   47.3593   -6.7547 C.3         1 O2N       0.0982
     36 N36       -19.1791   47.9648   -5.6625 N.am        1 O2N      -0.2653
     37 N37       -15.8443   45.9158   -2.0323 N.4         1 O2N       0.2715
     38 O38       -13.1620   47.0824    1.5514 O.co2       1 O2N      -0.5668
     39 O39       -17.1130   47.2565   -6.1181 O.2         1 O2N      -0.3883
     40 O40       -14.6615   45.3509    1.5450 O.co2       1 O2N      -0.5668
     41 O41       -10.2310   43.1469   -0.1592 O.3         1 O2N      -0.2947
     42 O42       -11.5371   44.2691    1.4855 O.3         1 O2N      -0.2890
     43 O43       -21.3195   51.3347  -10.6192 O.3         1 O2N      -0.3255
     44 O44       -24.2627   44.2329   -4.7759 O.3         1 O2N      -0.3255
     45 H1        -16.6551   51.9137   -3.8164 H           1 O2N       0.0572
     46 H2        -15.7913   50.9893   -1.7451 H           1 O2N       0.0635
     47 H3        -17.6830   50.4755   -5.4503 H           1 O2N       0.0651
     48 H4        -15.8700   48.6151   -1.3402 H           1 O2N       0.0570
     49 H5        -12.6498   45.0422   -3.4850 H           1 O2N       0.0445
     50 H6        -21.0517   49.8391   -6.3847 H           1 O2N       0.0534
     51 H7        -19.6700   47.3074   -9.4752 H           1 O2N       0.0534
     52 H8        -20.1568   44.6451   -6.5795 H           1 O2N       0.0534
     53 H9        -22.2860   48.1729   -5.6450 H           1 O2N       0.0534
     54 H10       -10.8689   43.5949   -2.7730 H           1 O2N       0.0514
     55 H11       -21.6523   51.4890   -8.0095 H           1 O2N       0.0526
     56 H12       -20.2399   48.9949  -11.0894 H           1 O2N       0.0526
     57 H13       -21.9852   43.3358   -5.7429 H           1 O2N       0.0526
     58 H14       -24.1198   46.8493   -4.8566 H           1 O2N       0.0526
     59 H15       -15.1206   43.6757   -5.4049 H           1 O2N       0.0292
     60 H16       -14.6357   45.0482   -4.5349 H           1 O2N       0.0292
     61 H17       -16.3057   42.8901   -3.6194 H           1 O2N       0.0725
     62 H18        -9.4955   43.8942    1.6281 H           1 O2N       0.0973
     63 H19       -10.5332   42.4689    1.7754 H           1 O2N       0.0973
     64 H20       -20.6697   53.0538  -11.5478 H           1 O2N       0.0575
     65 H21       -19.3650   51.9578  -11.0754 H           1 O2N       0.0575
     66 H22       -20.2086   52.9395   -9.8460 H           1 O2N       0.0575
     67 H23       -26.0093   43.2790   -5.3047 H           1 O2N       0.0575
     68 H24       -24.7373   43.1785   -6.5274 H           1 O2N       0.0575
     69 H25       -25.6427   44.6989   -6.2915 H           1 O2N       0.0575
     70 H26       -16.6728   46.1535   -3.9338 H           1 O2N       0.0995
     71 H27       -17.8201   46.4106   -2.6269 H           1 O2N       0.0995
     72 H28       -14.2088   46.8036   -3.0533 H           1 O2N       0.0966
     73 H29       -14.4197   47.3707   -1.4264 H           1 O2N       0.0966
     74 H30       -15.2875   43.9021   -1.5249 H           1 O2N       0.0998
     75 H31       -16.9706   44.1607   -1.8227 H           1 O2N       0.0998
     76 H32       -19.2074   46.6751   -7.2660 H           1 O2N       0.0837
     77 H33       -19.7013   48.5330   -5.0734 H           1 O2N       0.1893
     78 H34       -16.2124   46.1112   -1.0949 H           1 O2N       0.2082
@<TRIPOS>BOND
     1     1     2  ar
     2     3     1  ar
     3     4     2  ar
     4    15     3  ar
     5    19     4  ar
     6     5    10  ar
     7    20     5  ar
     8     6    11  ar
     9    17     6  ar
    10     7    12  ar
    11    17     7  ar
    12     8    13  ar
    13    18     8  ar
    14     9    14  ar
    15    18     9  ar
    16    10    21  ar
    17    11    23  ar
    18    12    23  ar
    19    13    24  ar
    20    14    24  ar
    21    15    19  ar
    22    27    15   1
    23    20    16  ar
    24    16    22  ar
    25    16    28   1
    26    35    17   1
    27    35    18   1
    28    19    32   1
    29    33    20   1
    30    22    21  ar
    31    21    41   1
    32    22    42   1
    33    23    43   1
    34    24    44   1
    35    26    25   2
    36    34    26   1
    37    36    27  am
    38    27    39   2
    39    28    38  ar
    40    28    40  ar
    41    29    41   1
    42    42    29   1
    43    43    30   1
    44    44    31   1
    45    32    37   1
    46    37    33   1
    47    37    34   1
    48    35    36   1
    49     1    45   1
    50     2    46   1
    51     3    47   1
    52     4    48   1
    53     5    49   1
    54     6    50   1
    55     7    51   1
    56     8    52   1
    57     9    53   1
    58    10    54   1
    59    11    55   1
    60    12    56   1
    61    13    57   1
    62    14    58   1
    63    25    59   1
    64    25    60   1
    65    26    61   1
    66    29    62   1
    67    29    63   1
    68    30    64   1
    69    30    65   1
    70    30    66   1
    71    31    67   1
    72    31    68   1
    73    31    69   1
    74    32    70   1
    75    32    71   1
    76    33    72   1
    77    33    73   1
    78    34    74   1
    79    34    75   1
    80    35    76   1
    81    36    77   1
    82    37    78   1
@<TRIPOS>SUBSTRUCTURE
     1  O2N      1

