@<TRIPOS>MOLECULE
3zso_ligand_010
    78    82
SMALL
GAST_HUCK
****
This file was generated by PARSER (from files_GN.cpp)

@<TRIPOS>ATOM
      1 C1        -16.1879   47.3834   -7.2183 C.ar        1 O2N      -0.0630
      2 C2        -15.7723   46.2464   -6.5135 C.ar        1 O2N      -0.0640
      3 C3        -16.7153   48.4806   -6.5213 C.ar        1 O2N      -0.0483
      4 C4        -15.9059   46.1948   -5.1174 C.ar        1 O2N      -0.0493
      5 C5        -13.4616   44.8600   -3.1781 C.ar        1 O2N      -0.0712
      6 C6        -15.7450   53.2504   -4.4153 C.ar        1 O2N      -0.0648
      7 C7        -18.1627   53.0233   -4.5375 C.ar        1 O2N      -0.0648
      8 C8        -15.8409   53.1592   -1.3084 C.ar        1 O2N      -0.0648
      9 C9        -15.3496   50.8044   -1.0219 C.ar        1 O2N      -0.0648
     10 C10       -12.1535   45.3733   -3.2465 C.ar        1 O2N      -0.0449
     11 C11       -15.7911   54.2718   -5.3814 C.ar        1 O2N      -0.0392
     12 C12       -18.2092   54.0376   -5.5130 C.ar        1 O2N      -0.0392
     13 C13       -15.0244   53.4711   -0.2057 C.ar        1 O2N      -0.0392
     14 C14       -14.5407   51.1075    0.0890 C.ar        1 O2N      -0.0392
     15 C15       -16.8409   48.4616   -5.1079 C.ar        1 O2N       0.0566
     16 C16       -13.8793   46.0675   -1.0859 C.ar        1 O2N       0.0376
     17 C17       -16.9294   52.6105   -3.9762 C.ar        1 O2N      -0.0192
     18 C18       -15.9884   51.8250   -1.7751 C.ar        1 O2N      -0.0192
     19 C19       -16.4596   47.2763   -4.3963 C.ar        1 O2N       0.0220
     20 C20       -14.3590   45.2227   -2.1323 C.ar        1 O2N      -0.0032
     21 C21       -11.7297   46.2473   -2.2392 C.ar        1 O2N       0.1200
     22 C22       -12.5659   46.5919   -1.1841 C.ar        1 O2N       0.1327
     23 C23       -17.0211   54.6552   -5.9542 C.ar        1 O2N       0.0839
     24 C24       -14.3690   52.4430    0.5004 C.ar        1 O2N       0.0839
     25 C25       -20.2024   46.0579   -3.8084 C.2         1 O2N      -0.1125
     26 C26       -19.3334   46.0066   -2.7925 C.2         1 O2N      -0.0447
     27 C27       -17.3034   49.6241   -4.4948 C.2         1 O2N       0.2037
     28 C28       -14.6712   46.4441    0.0274 C.2         1 O2N       0.0515
     29 C29       -10.7457   47.7641   -1.0762 C.3         1 O2N       0.1864
     30 C30       -16.8307   55.2315   -8.2262 C.3         1 O2N       0.0579
     31 C31       -14.1030   52.4662    2.8378 C.3         1 O2N       0.0579
     32 C32       -16.5627   47.1199   -2.9114 C.3         1 O2N       0.0086
     33 C33       -15.7728   44.7428   -2.2182 C.3         1 O2N       0.0003
     34 C34       -18.1529   45.1550   -2.7810 C.3         1 O2N      -0.0011
     35 C35       -16.8739   51.5146   -2.9513 C.3         1 O2N       0.0982
     36 N36       -16.5387   50.2911   -3.6334 N.am        1 O2N      -0.2653
     37 N37       -16.8708   45.7816   -2.3082 N.4         1 O2N       0.2715
     38 O38       -14.9649   47.7502    0.2659 O.co2       1 O2N      -0.5668
     39 O39       -18.3970   50.0602   -4.8271 O.2         1 O2N      -0.3883
     40 O40       -14.8790   45.5827    1.0639 O.co2       1 O2N      -0.5668
     41 O41       -10.5275   46.8292   -2.1497 O.3         1 O2N      -0.2947
     42 O42       -11.9245   47.4192   -0.3270 O.3         1 O2N      -0.2890
     43 O43       -17.0746   55.6672   -6.8774 O.3         1 O2N      -0.3255
     44 O44       -13.5375   52.7423    1.5473 O.3         1 O2N      -0.3255
     45 H1        -16.0836   47.4190   -8.2375 H           1 O2N       0.0572
     46 H2        -15.3711   45.4493   -7.0105 H           1 O2N       0.0635
     47 H3        -16.9793   49.3088   -7.0570 H           1 O2N       0.0651
     48 H4        -15.5916   45.3478   -4.6343 H           1 O2N       0.0570
     49 H5        -13.7598   44.2350   -3.9262 H           1 O2N       0.0445
     50 H6        -14.8412   52.9865   -4.0193 H           1 O2N       0.0534
     51 H7        -19.0382   52.5913   -4.2413 H           1 O2N       0.0534
     52 H8        -16.3222   53.9321   -1.7731 H           1 O2N       0.0534
     53 H9        -15.4713   49.8241   -1.2690 H           1 O2N       0.0534
     54 H10       -11.5352   45.1246   -4.0067 H           1 O2N       0.0514
     55 H11       -14.9279   54.7368   -5.6712 H           1 O2N       0.0526
     56 H12       -19.1093   54.3278   -5.9019 H           1 O2N       0.0526
     57 H13       -14.9099   54.4429    0.0878 H           1 O2N       0.0526
     58 H14       -14.0737   50.3550    0.6048 H           1 O2N       0.0526
     59 H15       -21.0107   46.6375   -3.7503 H           1 O2N       0.0292
     60 H16       -20.0895   45.4894   -4.6197 H           1 O2N       0.0292
     61 H17       -19.5283   46.5532   -1.9787 H           1 O2N       0.0725
     62 H18       -10.8613   48.7659   -1.5025 H           1 O2N       0.0973
     63 H19        -9.8784   47.7715   -0.4173 H           1 O2N       0.0973
     64 H20       -16.9096   56.1028   -8.8781 H           1 O2N       0.0575
     65 H21       -17.5714   54.4962   -8.5516 H           1 O2N       0.0575
     66 H22       -15.8296   54.8130   -8.3396 H           1 O2N       0.0575
     67 H23       -13.3860   52.7765    3.5933 H           1 O2N       0.0575
     68 H24       -14.3022   51.4031    2.9666 H           1 O2N       0.0575
     69 H25       -15.0284   53.0319    2.9987 H           1 O2N       0.0575
     70 H26       -17.3344   47.7672   -2.5071 H           1 O2N       0.0995
     71 H27       -15.6269   47.5101   -2.4879 H           1 O2N       0.0995
     72 H28       -15.9712   44.1514   -1.3223 H           1 O2N       0.0966
     73 H29       -15.8704   44.0475   -3.0600 H           1 O2N       0.0966
     74 H30       -18.0074   44.7191   -3.7731 H           1 O2N       0.0998
     75 H31       -18.4072   44.3341   -2.0911 H           1 O2N       0.0998
     76 H32       -17.8663   51.3700   -2.5064 H           1 O2N       0.0837
     77 H33       -15.6745   49.8950   -3.4327 H           1 O2N       0.1893
     78 H34       -17.0545   46.0064   -1.3295 H           1 O2N       0.2082
@<TRIPOS>BOND
     1     1     2  ar
     2     3     1  ar
     3     4     2  ar
     4    15     3  ar
     5    19     4  ar
     6     5    10  ar
     7    20     5  ar
     8     6    11  ar
     9    17     6  ar
    10     7    12  ar
    11    17     7  ar
    12     8    13  ar
    13    18     8  ar
    14     9    14  ar
    15    18     9  ar
    16    10    21  ar
    17    11    23  ar
    18    12    23  ar
    19    13    24  ar
    20    14    24  ar
    21    15    19  ar
    22    27    15   1
    23    20    16  ar
    24    16    22  ar
    25    16    28   1
    26    35    17   1
    27    35    18   1
    28    19    32   1
    29    33    20   1
    30    22    21  ar
    31    21    41   1
    32    22    42   1
    33    23    43   1
    34    24    44   1
    35    26    25   2
    36    34    26   1
    37    36    27  am
    38    27    39   2
    39    28    38  ar
    40    28    40  ar
    41    29    41   1
    42    42    29   1
    43    43    30   1
    44    44    31   1
    45    32    37   1
    46    37    33   1
    47    37    34   1
    48    35    36   1
    49     1    45   1
    50     2    46   1
    51     3    47   1
    52     4    48   1
    53     5    49   1
    54     6    50   1
    55     7    51   1
    56     8    52   1
    57     9    53   1
    58    10    54   1
    59    11    55   1
    60    12    56   1
    61    13    57   1
    62    14    58   1
    63    25    59   1
    64    25    60   1
    65    26    61   1
    66    29    62   1
    67    29    63   1
    68    30    64   1
    69    30    65   1
    70    30    66   1
    71    31    67   1
    72    31    68   1
    73    31    69   1
    74    32    70   1
    75    32    71   1
    76    33    72   1
    77    33    73   1
    78    34    74   1
    79    34    75   1
    80    35    76   1
    81    36    77   1
    82    37    78   1
@<TRIPOS>SUBSTRUCTURE
     1  O2N      1

