@<TRIPOS>MOLECULE
3zso_ligand_091
    78    82
SMALL
GAST_HUCK
****
This file was generated by PARSER (from files_GN.cpp)

@<TRIPOS>ATOM
      1 C1         -9.7695   51.1385   -3.4593 C.ar        1 O2N      -0.0630
      2 C2        -10.5686   52.1823   -2.9833 C.ar        1 O2N      -0.0640
      3 C3         -9.9089   49.8530   -2.9099 C.ar        1 O2N      -0.0483
      4 C4        -11.5195   51.9301   -1.9848 C.ar        1 O2N      -0.0493
      5 C5        -16.6783   52.9953    0.1656 C.ar        1 O2N      -0.0712
      6 C6        -13.2619   46.0867   -2.1738 C.ar        1 O2N      -0.0648
      7 C7        -12.3745   43.8579   -1.8345 C.ar        1 O2N      -0.0648
      8 C8         -8.6292   45.3639   -0.4486 C.ar        1 O2N      -0.0648
      9 C9        -10.7465   45.2779    0.7384 C.ar        1 O2N      -0.0648
     10 C10       -18.0503   53.1480    0.4146 C.ar        1 O2N      -0.0449
     11 C11       -14.5647   45.5582   -2.2607 C.ar        1 O2N      -0.0392
     12 C12       -13.6756   43.3293   -1.8954 C.ar        1 O2N      -0.0392
     13 C13        -7.9438   45.1267    0.7563 C.ar        1 O2N      -0.0392
     14 C14       -10.0618   45.0434    1.9450 C.ar        1 O2N      -0.0392
     15 C15       -10.8556   49.5704   -1.8949 C.ar        1 O2N       0.0566
     16 C16       -17.1423   51.8456   -1.9629 C.ar        1 O2N       0.0376
     17 C17       -12.1438   45.2563   -1.9202 C.ar        1 O2N      -0.0192
     18 C18       -10.0461   45.4396   -0.4816 C.ar        1 O2N      -0.0192
     19 C19       -11.7266   50.6302   -1.4516 C.ar        1 O2N       0.0220
     20 C20       -16.1940   52.3281   -0.9985 C.ar        1 O2N      -0.0032
     21 C21       -18.9614   52.6512   -0.5215 C.ar        1 O2N       0.1200
     22 C22       -18.5238   52.0310   -1.6830 C.ar        1 O2N       0.1327
     23 C23       -14.7847   44.1802   -2.0662 C.ar        1 O2N       0.0839
     24 C24        -8.6546   44.9861    1.9640 C.ar        1 O2N       0.0839
     25 C25       -14.7052   47.4324    0.6655 C.2         1 O2N      -0.1125
     26 C26       -15.0833   48.3672   -0.2163 C.2         1 O2N      -0.0447
     27 C27       -10.8241   48.2767   -1.3422 C.2         1 O2N       0.2037
     28 C28       -16.7876   51.1720   -3.1671 C.2         1 O2N       0.0515
     29 C29       -20.7019   52.2153   -1.7101 C.3         1 O2N       0.1864
     30 C30       -16.9788   44.2663   -1.1677 C.3         1 O2N       0.0579
     31 C31        -7.6871   45.9898    3.8491 C.3         1 O2N       0.0579
     32 C32       -12.8012   50.4940   -0.4087 C.3         1 O2N       0.0086
     33 C33       -14.7167   52.0391   -1.0410 C.3         1 O2N       0.0003
     34 C34       -15.1459   49.7937    0.0760 C.3         1 O2N      -0.0011
     35 C35       -10.7450   45.7944   -1.7648 C.3         1 O2N       0.0982
     36 N36       -10.6287   47.1975   -2.1018 N.am        1 O2N      -0.2653
     37 N37       -14.2588   50.6034   -0.8462 N.4         1 O2N       0.2715
     38 O38       -17.6800   50.4506   -3.8826 O.co2       1 O2N      -0.5668
     39 O39       -10.8210   48.1649   -0.1272 O.2         1 O2N      -0.3883
     40 O40       -15.5584   51.2508   -3.7172 O.co2       1 O2N      -0.5668
     41 O41       -20.3032   52.6950   -0.4170 O.3         1 O2N      -0.2947
     42 O42       -19.5891   51.6406   -2.4195 O.3         1 O2N      -0.2890
     43 O43       -16.0390   43.6236   -2.0529 O.3         1 O2N      -0.3255
     44 O44        -7.9822   44.7734    3.1378 O.3         1 O2N      -0.3255
     45 H1         -9.0702   51.3183   -4.1829 H           1 O2N       0.0572
     46 H2        -10.4511   53.1280   -3.3548 H           1 O2N       0.0635
     47 H3         -9.2644   49.1316   -3.2419 H           1 O2N       0.0651
     48 H4        -12.0461   52.7284   -1.6303 H           1 O2N       0.0570
     49 H5        -16.0329   53.3308    0.8862 H           1 O2N       0.0445
     50 H6        -13.1562   47.0931   -2.2920 H           1 O2N       0.0534
     51 H7        -11.5891   43.2141   -1.7059 H           1 O2N       0.0534
     52 H8         -8.0852   45.4983   -1.3048 H           1 O2N       0.0534
     53 H9        -11.7652   45.3619    0.7688 H           1 O2N       0.0534
     54 H10       -18.3819   53.5890    1.2772 H           1 O2N       0.0514
     55 H11       -15.3470   46.1882   -2.4531 H           1 O2N       0.0526
     56 H12       -13.8192   42.3208   -1.8013 H           1 O2N       0.0526
     57 H13        -6.9212   45.0735    0.7581 H           1 O2N       0.0526
     58 H14       -10.5918   44.9360    2.8121 H           1 O2N       0.0526
     59 H15       -14.6963   46.4730    0.4039 H           1 O2N       0.0292
     60 H16       -14.4176   47.6814    1.5802 H           1 O2N       0.0292
     61 H17       -15.3507   48.0664   -1.1254 H           1 O2N       0.0725
     62 H18       -21.1078   53.0501   -2.2889 H           1 O2N       0.0973
     63 H19       -21.4865   51.4651   -1.5893 H           1 O2N       0.0973
     64 H20       -17.8219   43.6010   -1.0238 H           1 O2N       0.0575
     65 H21       -17.3524   45.1880   -1.6167 H           1 O2N       0.0575
     66 H22       -16.5506   44.4899   -0.1861 H           1 O2N       0.0575
     67 H23        -7.1626   45.7295    4.7684 H           1 O2N       0.0575
     68 H24        -8.6005   46.5248    4.1205 H           1 O2N       0.0575
     69 H25        -7.0398   46.6481    3.2639 H           1 O2N       0.0575
     70 H26       -12.5901   51.2167    0.3852 H           1 O2N       0.0995
     71 H27       -12.6748   49.5405    0.0846 H           1 O2N       0.0995
     72 H28       -14.2101   52.6690   -0.3035 H           1 O2N       0.0966
     73 H29       -14.3520   52.3958   -2.0015 H           1 O2N       0.0966
     74 H30       -14.8901   50.0185    1.1200 H           1 O2N       0.0998
     75 H31       -16.2005   50.0363   -0.0386 H           1 O2N       0.0998
     76 H32       -10.1943   45.2938   -2.5654 H           1 O2N       0.0837
     77 H33       -10.5427   47.3676   -3.0506 H           1 O2N       0.1893
     78 H34       -14.3247   50.1488   -1.7657 H           1 O2N       0.2082
@<TRIPOS>BOND
     1     1     2  ar
     2     3     1  ar
     3     4     2  ar
     4    15     3  ar
     5    19     4  ar
     6     5    10  ar
     7    20     5  ar
     8     6    11  ar
     9    17     6  ar
    10     7    12  ar
    11    17     7  ar
    12     8    13  ar
    13    18     8  ar
    14     9    14  ar
    15    18     9  ar
    16    10    21  ar
    17    11    23  ar
    18    12    23  ar
    19    13    24  ar
    20    14    24  ar
    21    15    19  ar
    22    27    15   1
    23    20    16  ar
    24    16    22  ar
    25    16    28   1
    26    35    17   1
    27    35    18   1
    28    19    32   1
    29    33    20   1
    30    22    21  ar
    31    21    41   1
    32    22    42   1
    33    23    43   1
    34    24    44   1
    35    26    25   2
    36    34    26   1
    37    36    27  am
    38    27    39   2
    39    28    38  ar
    40    28    40  ar
    41    29    41   1
    42    42    29   1
    43    43    30   1
    44    44    31   1
    45    32    37   1
    46    37    33   1
    47    37    34   1
    48    35    36   1
    49     1    45   1
    50     2    46   1
    51     3    47   1
    52     4    48   1
    53     5    49   1
    54     6    50   1
    55     7    51   1
    56     8    52   1
    57     9    53   1
    58    10    54   1
    59    11    55   1
    60    12    56   1
    61    13    57   1
    62    14    58   1
    63    25    59   1
    64    25    60   1
    65    26    61   1
    66    29    62   1
    67    29    63   1
    68    30    64   1
    69    30    65   1
    70    30    66   1
    71    31    67   1
    72    31    68   1
    73    31    69   1
    74    32    70   1
    75    32    71   1
    76    33    72   1
    77    33    73   1
    78    34    74   1
    79    34    75   1
    80    35    76   1
    81    36    77   1
    82    37    78   1
@<TRIPOS>SUBSTRUCTURE
     1  O2N      1

