@<TRIPOS>MOLECULE
3zso_ligand_055
    78    82
SMALL
GAST_HUCK
****
This file was generated by PARSER (from files_GN.cpp)

@<TRIPOS>ATOM
      1 C1        -17.8818   44.0605   -5.9570 C.ar        1 O2N      -0.0630
      2 C2        -16.9034   43.2590   -5.3597 C.ar        1 O2N      -0.0640
      3 C3        -17.8239   45.4575   -5.8134 C.ar        1 O2N      -0.0483
      4 C4        -15.8719   43.8544   -4.6237 C.ar        1 O2N      -0.0493
      5 C5        -11.7033   45.2344   -2.0804 C.ar        1 O2N      -0.0712
      6 C6        -15.8132   51.9677   -5.1398 C.ar        1 O2N      -0.0648
      7 C7        -16.3227   50.2347   -3.5241 C.ar        1 O2N      -0.0648
      8 C8        -16.0860   50.0423   -8.4597 C.ar        1 O2N      -0.0648
      9 C9        -18.0916   49.9661   -7.0904 C.ar        1 O2N      -0.0648
     10 C10       -10.7173   44.2808   -1.7551 C.ar        1 O2N      -0.0449
     11 C11       -15.9516   52.9429   -4.1363 C.ar        1 O2N      -0.0392
     12 C12       -16.4728   51.2195   -2.5252 C.ar        1 O2N      -0.0392
     13 C13       -16.8744   50.2925   -9.5992 C.ar        1 O2N      -0.0392
     14 C14       -18.8816   50.2040   -8.2302 C.ar        1 O2N      -0.0392
     15 C15       -16.7684   46.0809   -5.0891 C.ar        1 O2N       0.0566
     16 C16       -12.4535   45.2995    0.2498 C.ar        1 O2N       0.0376
     17 C17       -16.0081   50.5907   -4.8600 C.ar        1 O2N      -0.0192
     18 C18       -16.6788   49.8608   -7.1813 C.ar        1 O2N      -0.0192
     19 C19       -15.7667   45.2616   -4.4743 C.ar        1 O2N       0.0220
     20 C20       -12.6089   45.7373   -1.1024 C.ar        1 O2N      -0.0032
     21 C21       -10.6119   43.8427   -0.4287 C.ar        1 O2N       0.1200
     22 C22       -11.4580   44.3416    0.5515 C.ar        1 O2N       0.1327
     23 C23       -16.2744   52.5822   -2.8177 C.ar        1 O2N       0.0839
     24 C24       -18.2795   50.3511   -9.4953 C.ar        1 O2N       0.0839
     25 C25       -17.8708   44.3576   -0.9458 C.2         1 O2N      -0.1125
     26 C26       -17.0241   45.0473   -1.7224 C.2         1 O2N      -0.0447
     27 C27       -16.7892   47.4744   -5.0422 C.2         1 O2N       0.2037
     28 C28       -13.2105   45.8157    1.3088 C.2         1 O2N       0.0515
     29 C29       -10.0949   42.9012    1.4473 C.3         1 O2N       0.1864
     30 C30       -15.4734   53.5326   -0.8208 C.3         1 O2N       0.0579
     31 C31       -19.6354   49.4405  -11.1776 C.3         1 O2N       0.0579
     32 C32       -14.6080   45.7759   -3.6704 C.3         1 O2N       0.0086
     33 C33       -13.6541   46.7208   -1.5397 C.3         1 O2N       0.0003
     34 C34       -15.6101   45.1587   -1.4257 C.3         1 O2N      -0.0011
     35 C35       -15.8256   49.5896   -5.9706 C.3         1 O2N       0.0982
     36 N36       -15.8561   48.1826   -5.6662 N.am        1 O2N      -0.2653
     37 N37       -14.8756   46.1878   -2.2469 N.4         1 O2N       0.2715
     38 O38       -12.5950   46.6214    2.2092 O.co2       1 O2N      -0.5668
     39 O39       -17.7669   48.0202   -4.5452 O.2         1 O2N      -0.3883
     40 O40       -14.3231   45.1614    1.7283 O.co2       1 O2N      -0.5668
     41 O41        -9.7053   42.9764    0.0630 O.3         1 O2N      -0.2947
     42 O42       -11.1586   43.8227    1.7616 O.3         1 O2N      -0.2890
     43 O43       -16.4546   53.5619   -1.8755 O.3         1 O2N      -0.3255
     44 O44       -19.0466   50.6184  -10.5925 O.3         1 O2N      -0.3255
     45 H1        -18.6260   43.6373   -6.5099 H           1 O2N       0.0572
     46 H2        -16.9362   42.2448   -5.4657 H           1 O2N       0.0635
     47 H3        -18.5571   46.0137   -6.2669 H           1 O2N       0.0651
     48 H4        -15.1872   43.2369   -4.1879 H           1 O2N       0.0570
     49 H5        -11.7440   45.5698   -3.0447 H           1 O2N       0.0445
     50 H6        -15.5672   52.2711   -6.0891 H           1 O2N       0.0534
     51 H7        -16.4457   49.2537   -3.2595 H           1 O2N       0.0534
     52 H8        -15.0727   50.0005   -8.5698 H           1 O2N       0.0534
     53 H9        -18.5540   49.8978   -6.1843 H           1 O2N       0.0534
     54 H10       -10.0792   43.9215   -2.4695 H           1 O2N       0.0514
     55 H11       -15.8167   53.9299   -4.3766 H           1 O2N       0.0526
     56 H12       -16.7305   50.9364   -1.5769 H           1 O2N       0.0526
     57 H13       -16.4272   50.4251  -10.5109 H           1 O2N       0.0526
     58 H14       -19.8940   50.2729   -8.1399 H           1 O2N       0.0526
     59 H15       -18.8416   44.3260   -1.1575 H           1 O2N       0.0292
     60 H16       -17.5435   43.8647   -0.1436 H           1 O2N       0.0292
     61 H17       -17.4040   45.5440   -2.4988 H           1 O2N       0.0725
     62 H18        -9.2339   43.1223    2.0784 H           1 O2N       0.0973
     63 H19       -10.4277   41.8849    1.6628 H           1 O2N       0.0973
     64 H20       -15.6620   54.3920   -0.1758 H           1 O2N       0.0575
     65 H21       -14.4504   53.6108   -1.2079 H           1 O2N       0.0575
     66 H22       -15.5715   52.6242   -0.2173 H           1 O2N       0.0575
     67 H23       -20.2229   49.7446  -12.0433 H           1 O2N       0.0575
     68 H24       -20.3010   48.9392  -10.4731 H           1 O2N       0.0575
     69 H25       -18.8682   48.7414  -11.5171 H           1 O2N       0.0575
     70 H26       -14.1787   46.6191   -4.2079 H           1 O2N       0.0995
     71 H27       -13.8179   45.0185   -3.6568 H           1 O2N       0.0995
     72 H28       -13.1676   47.4699   -2.1626 H           1 O2N       0.0966
     73 H29       -14.0070   47.2862   -0.6796 H           1 O2N       0.0966
     74 H30       -15.1315   44.1761   -1.5353 H           1 O2N       0.0998
     75 H31       -15.5768   45.4255   -0.3675 H           1 O2N       0.0998
     76 H32       -14.7742   49.7366   -6.2650 H           1 O2N       0.0837
     77 H33       -15.1258   47.6662   -6.0466 H           1 O2N       0.1893
     78 H34       -15.5098   46.9811   -2.3090 H           1 O2N       0.2082
@<TRIPOS>BOND
     1     1     2  ar
     2     3     1  ar
     3     4     2  ar
     4    15     3  ar
     5    19     4  ar
     6     5    10  ar
     7    20     5  ar
     8     6    11  ar
     9    17     6  ar
    10     7    12  ar
    11    17     7  ar
    12     8    13  ar
    13    18     8  ar
    14     9    14  ar
    15    18     9  ar
    16    10    21  ar
    17    11    23  ar
    18    12    23  ar
    19    13    24  ar
    20    14    24  ar
    21    15    19  ar
    22    27    15   1
    23    20    16  ar
    24    16    22  ar
    25    16    28   1
    26    35    17   1
    27    35    18   1
    28    19    32   1
    29    33    20   1
    30    22    21  ar
    31    21    41   1
    32    22    42   1
    33    23    43   1
    34    24    44   1
    35    26    25   2
    36    34    26   1
    37    36    27  am
    38    27    39   2
    39    28    38  ar
    40    28    40  ar
    41    29    41   1
    42    42    29   1
    43    43    30   1
    44    44    31   1
    45    32    37   1
    46    37    33   1
    47    37    34   1
    48    35    36   1
    49     1    45   1
    50     2    46   1
    51     3    47   1
    52     4    48   1
    53     5    49   1
    54     6    50   1
    55     7    51   1
    56     8    52   1
    57     9    53   1
    58    10    54   1
    59    11    55   1
    60    12    56   1
    61    13    57   1
    62    14    58   1
    63    25    59   1
    64    25    60   1
    65    26    61   1
    66    29    62   1
    67    29    63   1
    68    30    64   1
    69    30    65   1
    70    30    66   1
    71    31    67   1
    72    31    68   1
    73    31    69   1
    74    32    70   1
    75    32    71   1
    76    33    72   1
    77    33    73   1
    78    34    74   1
    79    34    75   1
    80    35    76   1
    81    36    77   1
    82    37    78   1
@<TRIPOS>SUBSTRUCTURE
     1  O2N      1

