@<TRIPOS>MOLECULE
3zso_ligand_033
    78    82
SMALL
GAST_HUCK
****
This file was generated by PARSER (from files_GN.cpp)

@<TRIPOS>ATOM
      1 C1        -15.5578   49.0012   -6.9404 C.ar        1 O2N      -0.0630
      2 C2        -15.8192   47.6288   -6.8718 C.ar        1 O2N      -0.0640
      3 C3        -15.9290   49.8442   -5.8795 C.ar        1 O2N      -0.0483
      4 C4        -16.4305   47.0933   -5.7276 C.ar        1 O2N      -0.0493
      5 C5        -13.3013   44.9684   -3.2351 C.ar        1 O2N      -0.0712
      6 C6        -18.1093   53.0686   -0.8506 C.ar        1 O2N      -0.0648
      7 C7        -19.0098   50.9645   -1.6361 C.ar        1 O2N      -0.0648
      8 C8        -14.5227   51.9756   -0.0759 C.ar        1 O2N      -0.0648
      9 C9        -15.0538   53.0442   -2.1925 C.ar        1 O2N      -0.0648
     10 C10       -12.2799   44.0337   -2.9787 C.ar        1 O2N      -0.0449
     11 C11       -19.4095   53.6120   -0.8055 C.ar        1 O2N      -0.0392
     12 C12       -20.3147   51.4912   -1.5639 C.ar        1 O2N      -0.0392
     13 C13       -13.4804   52.8980    0.1294 C.ar        1 O2N      -0.0392
     14 C14       -14.0177   53.9741   -1.9848 C.ar        1 O2N      -0.0392
     15 C15       -16.5353   49.3167   -4.7082 C.ar        1 O2N       0.0566
     16 C16       -13.4932   45.4751   -0.8388 C.ar        1 O2N       0.0376
     17 C17       -17.8749   51.7445   -1.3064 C.ar        1 O2N      -0.0192
     18 C18       -15.3378   52.0398   -1.2357 C.ar        1 O2N      -0.0192
     19 C19       -16.7586   47.9034   -4.6119 C.ar        1 O2N       0.0220
     20 C20       -13.9272   45.7006   -2.1833 C.ar        1 O2N      -0.0032
     21 C21       -11.8781   43.8232   -1.6545 C.ar        1 O2N       0.1200
     22 C22       -12.4610   44.5310   -0.6125 C.ar        1 O2N       0.1327
     23 C23       -20.5161   52.8340   -1.1939 C.ar        1 O2N       0.0839
     24 C24       -13.2264   53.9064   -0.8204 C.ar        1 O2N       0.0839
     25 C25       -17.3894   43.9797   -0.7806 C.2         1 O2N      -0.1125
     26 C26       -16.5445   43.9217   -1.8192 C.2         1 O2N      -0.0447
     27 C27       -16.9129   50.2291   -3.7225 C.2         1 O2N       0.2037
     28 C28       -14.0483   46.1397    0.2698 C.2         1 O2N       0.0515
     29 C29       -10.7494   43.4349    0.1282 C.3         1 O2N       0.1864
     30 C30       -22.2220   53.8973   -2.4198 C.3         1 O2N       0.0579
     31 C31       -10.9601   54.5043   -1.0316 C.3         1 O2N       0.0579
     32 C32       -17.3241   47.2055   -3.4021 C.3         1 O2N       0.0086
     33 C33       -15.0029   46.6752   -2.5598 C.3         1 O2N       0.0003
     34 C34       -16.6736   44.7757   -2.9897 C.3         1 O2N      -0.0011
     35 C35       -16.5040   51.1173   -1.4131 C.3         1 O2N       0.0982
     36 N36       -16.2443   50.3009   -2.5763 N.am        1 O2N      -0.2653
     37 N37       -16.4418   46.2261   -2.6571 N.4         1 O2N       0.2715
     38 O38       -14.6488   45.4380    1.2601 O.co2       1 O2N      -0.5668
     39 O39       -17.8451   50.9888   -3.9562 O.2         1 O2N      -0.3883
     40 O40       -13.6982   47.4191    0.5475 O.co2       1 O2N      -0.5668
     41 O41       -10.9204   42.9846   -1.2269 O.3         1 O2N      -0.2947
     42 O42       -11.8879   44.2010    0.5615 O.3         1 O2N      -0.2890
     43 O43       -21.7774   53.3680   -1.1561 O.3         1 O2N      -0.3255
     44 O44       -12.2756   54.8624   -0.5748 O.3         1 O2N      -0.3255
     45 H1        -15.1017   49.3982   -7.7649 H           1 O2N       0.0572
     46 H2        -15.5571   47.0164   -7.6467 H           1 O2N       0.0635
     47 H3        -15.7275   50.8452   -5.9638 H           1 O2N       0.0651
     48 H4        -16.6034   46.0913   -5.7097 H           1 O2N       0.0570
     49 H5        -13.5799   45.1214   -4.2062 H           1 O2N       0.0445
     50 H6        -17.3410   53.6678   -0.5470 H           1 O2N       0.0534
     51 H7        -18.8963   49.9952   -1.9305 H           1 O2N       0.0534
     52 H8        -14.6942   51.2655    0.6408 H           1 O2N       0.0534
     53 H9        -15.6262   53.1288   -3.0356 H           1 O2N       0.0534
     54 H10       -11.8330   43.5268   -3.7451 H           1 O2N       0.0514
     55 H11       -19.5499   54.5739   -0.4861 H           1 O2N       0.0526
     56 H12       -21.1140   50.8971   -1.7868 H           1 O2N       0.0526
     57 H13       -12.9183   52.8488    0.9850 H           1 O2N       0.0526
     58 H14       -13.8546   54.7157   -2.6708 H           1 O2N       0.0526
     59 H15       -17.2421   43.4108    0.0208 H           1 O2N       0.0292
     60 H16       -18.1724   44.5918   -0.7899 H           1 O2N       0.0292
     61 H17       -15.7888   43.2745   -1.7781 H           1 O2N       0.0725
     62 H18        -9.8498   44.0574    0.1870 H           1 O2N       0.0973
     63 H19       -10.6136   42.5756    0.7881 H           1 O2N       0.0973
     64 H20       -23.2245   54.3022   -2.2878 H           1 O2N       0.0575
     65 H21       -22.2704   53.1203   -3.1860 H           1 O2N       0.0575
     66 H22       -21.5750   54.7080   -2.7705 H           1 O2N       0.0575
     67 H23       -10.2844   55.3248   -0.7912 H           1 O2N       0.0575
     68 H24       -10.9450   54.3537   -2.1141 H           1 O2N       0.0575
     69 H25       -10.5954   53.6036   -0.5305 H           1 O2N       0.0575
     70 H26       -18.2594   46.7305   -3.7127 H           1 O2N       0.0995
     71 H27       -17.6334   47.9357   -2.6608 H           1 O2N       0.0995
     72 H28       -14.6788   47.1100   -3.5071 H           1 O2N       0.0966
     73 H29       -14.9949   47.5087   -1.8565 H           1 O2N       0.0966
     74 H30       -17.6787   44.6113   -3.3891 H           1 O2N       0.0998
     75 H31       -15.9748   44.4491   -3.7637 H           1 O2N       0.0998
     76 H32       -16.4912   50.4010   -0.5870 H           1 O2N       0.0837
     77 H33       -15.4631   49.7271   -2.5141 H           1 O2N       0.1893
     78 H34       -16.7853   46.3059   -1.6950 H           1 O2N       0.2082
@<TRIPOS>BOND
     1     1     2  ar
     2     3     1  ar
     3     4     2  ar
     4    15     3  ar
     5    19     4  ar
     6     5    10  ar
     7    20     5  ar
     8     6    11  ar
     9    17     6  ar
    10     7    12  ar
    11    17     7  ar
    12     8    13  ar
    13    18     8  ar
    14     9    14  ar
    15    18     9  ar
    16    10    21  ar
    17    11    23  ar
    18    12    23  ar
    19    13    24  ar
    20    14    24  ar
    21    15    19  ar
    22    27    15   1
    23    20    16  ar
    24    16    22  ar
    25    16    28   1
    26    35    17   1
    27    35    18   1
    28    19    32   1
    29    33    20   1
    30    22    21  ar
    31    21    41   1
    32    22    42   1
    33    23    43   1
    34    24    44   1
    35    26    25   2
    36    34    26   1
    37    36    27  am
    38    27    39   2
    39    28    38  ar
    40    28    40  ar
    41    29    41   1
    42    42    29   1
    43    43    30   1
    44    44    31   1
    45    32    37   1
    46    37    33   1
    47    37    34   1
    48    35    36   1
    49     1    45   1
    50     2    46   1
    51     3    47   1
    52     4    48   1
    53     5    49   1
    54     6    50   1
    55     7    51   1
    56     8    52   1
    57     9    53   1
    58    10    54   1
    59    11    55   1
    60    12    56   1
    61    13    57   1
    62    14    58   1
    63    25    59   1
    64    25    60   1
    65    26    61   1
    66    29    62   1
    67    29    63   1
    68    30    64   1
    69    30    65   1
    70    30    66   1
    71    31    67   1
    72    31    68   1
    73    31    69   1
    74    32    70   1
    75    32    71   1
    76    33    72   1
    77    33    73   1
    78    34    74   1
    79    34    75   1
    80    35    76   1
    81    36    77   1
    82    37    78   1
@<TRIPOS>SUBSTRUCTURE
     1  O2N      1

