@<TRIPOS>MOLECULE
3zso_ligand_079
    78    82
SMALL
GAST_HUCK
****
This file was generated by PARSER (from files_GN.cpp)

@<TRIPOS>ATOM
      1 C1        -17.9325   44.3341   -5.9125 C.ar        1 O2N      -0.0630
      2 C2        -17.0693   43.4243   -5.2966 C.ar        1 O2N      -0.0640
      3 C3        -17.6121   45.6954   -5.9381 C.ar        1 O2N      -0.0483
      4 C4        -15.8676   43.8816   -4.7371 C.ar        1 O2N      -0.0493
      5 C5        -11.6148   48.2060   -1.4614 C.ar        1 O2N      -0.0712
      6 C6        -16.1672   51.8230   -3.9217 C.ar        1 O2N      -0.0648
      7 C7        -16.3172   49.7399   -2.6821 C.ar        1 O2N      -0.0648
      8 C8        -18.8461   51.1984   -6.4455 C.ar        1 O2N      -0.0648
      9 C9        -19.5831   50.1964   -4.3562 C.ar        1 O2N      -0.0648
     10 C10       -11.2056   49.2102   -0.5666 C.ar        1 O2N      -0.0449
     11 C11       -15.5407   52.4352   -2.8231 C.ar        1 O2N      -0.0392
     12 C12       -15.6730   50.3448   -1.5873 C.ar        1 O2N      -0.0392
     13 C13       -20.1186   51.7699   -6.6226 C.ar        1 O2N      -0.0392
     14 C14       -20.8580   50.7605   -4.5385 C.ar        1 O2N      -0.0392
     15 C15       -16.4156   46.1963   -5.3510 C.ar        1 O2N       0.0566
     16 C16       -12.7667   47.0173    0.3459 C.ar        1 O2N       0.0376
     17 C17       -16.5501   50.4604   -3.8829 C.ar        1 O2N      -0.0192
     18 C18       -18.5527   50.4075   -5.3071 C.ar        1 O2N      -0.0192
     19 C19       -15.5093   45.2562   -4.7545 C.ar        1 O2N       0.0220
     20 C20       -12.4145   47.1007   -1.0437 C.ar        1 O2N      -0.0032
     21 C21       -11.6465   49.1555    0.7577 C.ar        1 O2N       0.1200
     22 C22       -12.4130   48.0908    1.2010 C.ar        1 O2N       0.1327
     23 C23       -15.2596   51.6887   -1.6619 C.ar        1 O2N       0.0839
     24 C24       -21.1382   51.5415   -5.6759 C.ar        1 O2N       0.0839
     25 C25       -17.4251   44.5611   -1.3140 C.2         1 O2N      -0.1125
     26 C26       -16.5370   45.3343   -1.9630 C.2         1 O2N      -0.0447
     27 C27       -16.2264   47.5775   -5.3796 C.2         1 O2N       0.2037
     28 C28       -13.3971   45.9010    0.9424 C.2         1 O2N       0.0515
     29 C29       -12.2286   49.5711    2.7889 C.3         1 O2N       0.1864
     30 C30       -13.1960   52.4161   -0.8477 C.3         1 O2N       0.0579
     31 C31       -23.2516   51.4418   -6.7078 C.3         1 O2N       0.0579
     32 C32       -14.2107   45.6032   -4.0725 C.3         1 O2N       0.0086
     33 C33       -12.7638   46.0713   -2.0916 C.3         1 O2N       0.0003
     34 C34       -15.1081   45.2311   -1.7318 C.3         1 O2N      -0.0011
     35 C35       -17.1809   49.8512   -5.0980 C.3         1 O2N       0.0982
     36 N36       -17.2260   48.4111   -5.0954 N.am        1 O2N      -0.2653
     37 N37       -14.1946   46.0351   -2.6193 N.4         1 O2N       0.2715
     38 O38       -13.0585   44.6357    0.6101 O.co2       1 O2N      -0.5668
     39 O39       -15.1612   48.0364   -5.7839 O.2         1 O2N      -0.3883
     40 O40       -14.3044   46.0413    1.9361 O.co2       1 O2N      -0.5668
     41 O41       -11.3890   50.0507    1.7256 O.3         1 O2N      -0.2947
     42 O42       -12.6783   48.2300    2.5228 O.3         1 O2N      -0.2890
     43 O43       -14.6073   52.2640   -0.6067 O.3         1 O2N      -0.3255
     44 O44       -22.3657   52.1315   -5.8078 O.3         1 O2N      -0.3255
     45 H1        -18.7920   44.0002   -6.3526 H           1 O2N       0.0572
     46 H2        -17.3091   42.4328   -5.2545 H           1 O2N       0.0635
     47 H3        -18.2706   46.3276   -6.4011 H           1 O2N       0.0651
     48 H4        -15.2658   43.1930   -4.2805 H           1 O2N       0.0570
     49 H5        -11.2959   48.2912   -2.4302 H           1 O2N       0.0445
     50 H6        -16.3345   52.3818   -4.7647 H           1 O2N       0.0534
     51 H7        -16.6051   48.7658   -2.5922 H           1 O2N       0.0534
     52 H8        -18.1268   51.3816   -7.1497 H           1 O2N       0.0534
     53 H9        -19.4033   49.6339   -3.5204 H           1 O2N       0.0534
     54 H10       -10.6176   49.9850   -0.8824 H           1 O2N       0.0514
     55 H11       -15.2625   53.4167   -2.8794 H           1 O2N       0.0526
     56 H12       -15.4904   49.8001   -0.7392 H           1 O2N       0.0526
     57 H13       -20.3013   52.3556   -7.4414 H           1 O2N       0.0526
     58 H14       -21.5850   50.6075   -3.8346 H           1 O2N       0.0526
     59 H15       -18.3959   44.6768   -1.4642 H           1 O2N       0.0292
     60 H16       -17.1224   43.8442   -0.6939 H           1 O2N       0.0292
     61 H17       -16.8803   46.0397   -2.5611 H           1 O2N       0.0725
     62 H18       -13.0971   50.2293    2.8909 H           1 O2N       0.0973
     63 H19       -11.6708   49.5966    3.7270 H           1 O2N       0.0973
     64 H20       -12.7402   52.8262    0.0544 H           1 O2N       0.0575
     65 H21       -13.0024   53.1057   -1.6750 H           1 O2N       0.0575
     66 H22       -12.7237   51.4540   -1.0634 H           1 O2N       0.0575
     67 H23       -24.2119   51.9589   -6.6975 H           1 O2N       0.0575
     68 H24       -23.4189   50.4065   -6.3971 H           1 O2N       0.0575
     69 H25       -22.8679   51.4589   -7.7314 H           1 O2N       0.0575
     70 H26       -13.7265   46.3863   -4.6490 H           1 O2N       0.0995
     71 H27       -13.5380   44.7416   -4.1806 H           1 O2N       0.0995
     72 H28       -12.4796   45.0815   -1.7415 H           1 O2N       0.0966
     73 H29       -12.0791   46.2287   -2.9334 H           1 O2N       0.0966
     74 H30       -14.8037   44.1803   -1.7831 H           1 O2N       0.0998
     75 H31       -15.0013   45.5553   -0.6996 H           1 O2N       0.0998
     76 H32       -16.5593   50.1325   -5.9564 H           1 O2N       0.0837
     77 H33       -18.0715   48.0057   -4.8365 H           1 O2N       0.1893
     78 H34       -14.5316   46.9923   -2.6132 H           1 O2N       0.2082
@<TRIPOS>BOND
     1     1     2  ar
     2     3     1  ar
     3     4     2  ar
     4    15     3  ar
     5    19     4  ar
     6     5    10  ar
     7    20     5  ar
     8     6    11  ar
     9    17     6  ar
    10     7    12  ar
    11    17     7  ar
    12     8    13  ar
    13    18     8  ar
    14     9    14  ar
    15    18     9  ar
    16    10    21  ar
    17    11    23  ar
    18    12    23  ar
    19    13    24  ar
    20    14    24  ar
    21    15    19  ar
    22    27    15   1
    23    20    16  ar
    24    16    22  ar
    25    16    28   1
    26    35    17   1
    27    35    18   1
    28    19    32   1
    29    33    20   1
    30    22    21  ar
    31    21    41   1
    32    22    42   1
    33    23    43   1
    34    24    44   1
    35    26    25   2
    36    34    26   1
    37    36    27  am
    38    27    39   2
    39    28    38  ar
    40    28    40  ar
    41    29    41   1
    42    42    29   1
    43    43    30   1
    44    44    31   1
    45    32    37   1
    46    37    33   1
    47    37    34   1
    48    35    36   1
    49     1    45   1
    50     2    46   1
    51     3    47   1
    52     4    48   1
    53     5    49   1
    54     6    50   1
    55     7    51   1
    56     8    52   1
    57     9    53   1
    58    10    54   1
    59    11    55   1
    60    12    56   1
    61    13    57   1
    62    14    58   1
    63    25    59   1
    64    25    60   1
    65    26    61   1
    66    29    62   1
    67    29    63   1
    68    30    64   1
    69    30    65   1
    70    30    66   1
    71    31    67   1
    72    31    68   1
    73    31    69   1
    74    32    70   1
    75    32    71   1
    76    33    72   1
    77    33    73   1
    78    34    74   1
    79    34    75   1
    80    35    76   1
    81    36    77   1
    82    37    78   1
@<TRIPOS>SUBSTRUCTURE
     1  O2N      1

