@<TRIPOS>MOLECULE
3zso_ligand_052
    78    82
SMALL
GAST_HUCK
****
This file was generated by PARSER (from files_GN.cpp)

@<TRIPOS>ATOM
      1 C1        -18.1045   44.7167   -5.8723 C.ar        1 O2N      -0.0630
      2 C2        -17.2215   43.6770   -5.5658 C.ar        1 O2N      -0.0640
      3 C3        -17.7219   46.0495   -5.6449 C.ar        1 O2N      -0.0483
      4 C4        -15.9647   43.9633   -5.0175 C.ar        1 O2N      -0.0493
      5 C5        -11.8116   48.2711   -1.5087 C.ar        1 O2N      -0.0712
      6 C6        -17.5831   51.0394   -1.6623 C.ar        1 O2N      -0.0648
      7 C7        -19.1849   49.8615   -3.0581 C.ar        1 O2N      -0.0648
      8 C8        -15.9501   51.9541   -4.7285 C.ar        1 O2N      -0.0648
      9 C9        -17.1198   50.3671   -6.1502 C.ar        1 O2N      -0.0648
     10 C10       -11.4994   49.3373   -0.6543 C.ar        1 O2N      -0.0449
     11 C11       -18.6234   51.4519   -0.8122 C.ar        1 O2N      -0.0392
     12 C12       -20.2257   50.2531   -2.1978 C.ar        1 O2N      -0.0392
     13 C13       -15.7428   52.7938   -5.8353 C.ar        1 O2N      -0.0392
     14 C14       -16.9209   51.2131   -7.2567 C.ar        1 O2N      -0.0392
     15 C15       -16.4502   46.3619   -5.0914 C.ar        1 O2N       0.0566
     16 C16       -12.9027   47.0534    0.3219 C.ar        1 O2N       0.0376
     17 C17       -17.8455   50.2377   -2.7968 C.ar        1 O2N      -0.0192
     18 C18       -16.6140   50.7096   -4.8705 C.ar        1 O2N      -0.0192
     19 C19       -15.5553   45.2954   -4.7508 C.ar        1 O2N       0.0220
     20 C20       -12.5418   47.1234   -1.0678 C.ar        1 O2N      -0.0032
     21 C21       -11.9307   49.2799    0.6726 C.ar        1 O2N       0.1200
     22 C22       -12.6195   48.1766    1.1479 C.ar        1 O2N       0.1327
     23 C23       -19.9503   51.0480   -1.0658 C.ar        1 O2N       0.0839
     24 C24       -16.1991   52.4116   -7.1102 C.ar        1 O2N       0.0839
     25 C25       -17.5073   44.6063   -1.3503 C.2         1 O2N      -0.1125
     26 C26       -16.5879   45.3555   -1.9762 C.2         1 O2N      -0.0447
     27 C27       -16.1600   47.6923   -4.8764 C.2         1 O2N       0.2037
     28 C28       -13.4949   45.9318    0.9476 C.2         1 O2N       0.0515
     29 C29       -12.5075   49.6888    2.7020 C.3         1 O2N       0.1864
     30 C30       -21.2893   50.5465    0.7955 C.3         1 O2N       0.0579
     31 C31       -14.8343   52.7692   -8.9773 C.3         1 O2N       0.0579
     32 C32       -14.2377   45.4977   -4.0591 C.3         1 O2N       0.0086
     33 C33       -12.8167   46.0593   -2.0928 C.3         1 O2N       0.0003
     34 C34       -15.1615   45.2149   -1.7287 C.3         1 O2N      -0.0011
     35 C35       -16.7295   49.7930   -3.6940 C.3         1 O2N       0.0982
     36 N36       -16.8831   48.4035   -4.0105 N.am        1 O2N      -0.2653
     37 N37       -14.2372   45.9972   -2.6347 N.4         1 O2N       0.2715
     38 O38       -13.1697   44.6631    0.6175 O.co2       1 O2N      -0.5668
     39 O39       -15.2956   48.2351   -5.5600 O.2         1 O2N      -0.3883
     40 O40       -14.3943   46.0688    1.9516 O.co2       1 O2N      -0.5668
     41 O41       -11.6942   50.1967    1.6327 O.3         1 O2N      -0.2947
     42 O42       -12.8797   48.3189    2.4652 O.3         1 O2N      -0.2890
     43 O43       -20.9798   51.4653   -0.2672 O.3         1 O2N      -0.3255
     44 O44       -15.9584   53.2126   -8.1957 O.3         1 O2N      -0.3255
     45 H1        -19.0264   44.5113   -6.2670 H           1 O2N       0.0572
     46 H2        -17.5003   42.7047   -5.7303 H           1 O2N       0.0635
     47 H3        -18.3878   46.7882   -5.8874 H           1 O2N       0.0651
     48 H4        -15.3555   43.1798   -4.7852 H           1 O2N       0.0570
     49 H5        -11.4687   48.3289   -2.4686 H           1 O2N       0.0445
     50 H6        -16.6284   51.3375   -1.4457 H           1 O2N       0.0534
     51 H7        -19.4122   49.2811   -3.8700 H           1 O2N       0.0534
     52 H8        -15.5913   52.2442   -3.8150 H           1 O2N       0.0534
     53 H9        -17.6244   49.4899   -6.2904 H           1 O2N       0.0534
     54 H10       -10.9441   50.1311   -0.9924 H           1 O2N       0.0514
     55 H11       -18.4156   52.0392   -0.0004 H           1 O2N       0.0526
     56 H12       -21.1860   49.9595   -2.3918 H           1 O2N       0.0526
     57 H13       -15.2375   53.6763   -5.7141 H           1 O2N       0.0526
     58 H14       -17.2809   50.9386   -8.1742 H           1 O2N       0.0526
     59 H15       -18.4736   44.7618   -1.5186 H           1 O2N       0.0292
     60 H16       -17.2397   43.8826   -0.7226 H           1 O2N       0.0292
     61 H17       -16.9007   46.0926   -2.5672 H           1 O2N       0.0725
     62 H18       -13.4134   50.2982    2.7846 H           1 O2N       0.0973
     63 H19       -11.9598   49.7560    3.6438 H           1 O2N       0.0973
     64 H20       -22.1636   50.9224    1.3248 H           1 O2N       0.0575
     65 H21       -20.4633   50.4797    1.5071 H           1 O2N       0.0575
     66 H22       -21.5236   49.5501    0.4110 H           1 O2N       0.0575
     67 H23       -14.6919   53.4718   -9.7991 H           1 O2N       0.0575
     68 H24       -15.0114   51.7783   -9.4049 H           1 O2N       0.0575
     69 H25       -13.9153   52.7497   -8.3848 H           1 O2N       0.0575
     70 H26       -13.6741   46.1975   -4.6769 H           1 O2N       0.0995
     71 H27       -13.6546   44.5643   -4.0786 H           1 O2N       0.0995
     72 H28       -12.5186   45.0807   -1.7199 H           1 O2N       0.0966
     73 H29       -12.1117   46.2259   -2.9174 H           1 O2N       0.0966
     74 H30       -14.8791   44.1555   -1.7792 H           1 O2N       0.0998
     75 H31       -15.0409   45.5375   -0.7034 H           1 O2N       0.0998
     76 H32       -15.7881   49.8526   -3.1346 H           1 O2N       0.0837
     77 H33       -17.5718   47.9150   -3.5306 H           1 O2N       0.1893
     78 H34       -14.5707   46.9625   -2.6760 H           1 O2N       0.2082
@<TRIPOS>BOND
     1     1     2  ar
     2     3     1  ar
     3     4     2  ar
     4    15     3  ar
     5    19     4  ar
     6     5    10  ar
     7    20     5  ar
     8     6    11  ar
     9    17     6  ar
    10     7    12  ar
    11    17     7  ar
    12     8    13  ar
    13    18     8  ar
    14     9    14  ar
    15    18     9  ar
    16    10    21  ar
    17    11    23  ar
    18    12    23  ar
    19    13    24  ar
    20    14    24  ar
    21    15    19  ar
    22    27    15   1
    23    20    16  ar
    24    16    22  ar
    25    16    28   1
    26    35    17   1
    27    35    18   1
    28    19    32   1
    29    33    20   1
    30    22    21  ar
    31    21    41   1
    32    22    42   1
    33    23    43   1
    34    24    44   1
    35    26    25   2
    36    34    26   1
    37    36    27  am
    38    27    39   2
    39    28    38  ar
    40    28    40  ar
    41    29    41   1
    42    42    29   1
    43    43    30   1
    44    44    31   1
    45    32    37   1
    46    37    33   1
    47    37    34   1
    48    35    36   1
    49     1    45   1
    50     2    46   1
    51     3    47   1
    52     4    48   1
    53     5    49   1
    54     6    50   1
    55     7    51   1
    56     8    52   1
    57     9    53   1
    58    10    54   1
    59    11    55   1
    60    12    56   1
    61    13    57   1
    62    14    58   1
    63    25    59   1
    64    25    60   1
    65    26    61   1
    66    29    62   1
    67    29    63   1
    68    30    64   1
    69    30    65   1
    70    30    66   1
    71    31    67   1
    72    31    68   1
    73    31    69   1
    74    32    70   1
    75    32    71   1
    76    33    72   1
    77    33    73   1
    78    34    74   1
    79    34    75   1
    80    35    76   1
    81    36    77   1
    82    37    78   1
@<TRIPOS>SUBSTRUCTURE
     1  O2N      1

