@<TRIPOS>MOLECULE
3zso_ligand_032
    78    82
SMALL
GAST_HUCK
****
This file was generated by PARSER (from files_GN.cpp)

@<TRIPOS>ATOM
      1 C1        -11.5783   43.5456   -0.6407 C.ar        1 O2N      -0.0630
      2 C2        -12.1694   43.5214   -1.9123 C.ar        1 O2N      -0.0640
      3 C3        -11.9809   44.5115    0.2971 C.ar        1 O2N      -0.0483
      4 C4        -13.1972   44.4273   -2.2241 C.ar        1 O2N      -0.0493
      5 C5        -16.0499   46.9586   -5.5776 C.ar        1 O2N      -0.0712
      6 C6        -11.4876   50.1310   -0.2377 C.ar        1 O2N      -0.0648
      7 C7        -13.4386   51.0801    0.8457 C.ar        1 O2N      -0.0648
      8 C8        -10.3069   48.5139    2.4180 C.ar        1 O2N      -0.0648
      9 C9        -12.0866   48.9980    3.9955 C.ar        1 O2N      -0.0648
     10 C10       -15.6902   47.4276   -6.8516 C.ar        1 O2N      -0.0449
     11 C11       -11.3267   51.3108   -0.9870 C.ar        1 O2N      -0.0392
     12 C12       -13.2875   52.2572    0.0905 C.ar        1 O2N      -0.0392
     13 C13        -9.3694   48.5263    3.4663 C.ar        1 O2N      -0.0392
     14 C14       -11.1545   48.9999    5.0491 C.ar        1 O2N      -0.0392
     15 C15       -13.0109   45.4325   -0.0077 C.ar        1 O2N       0.0566
     16 C16       -16.1567   49.2571   -4.7151 C.ar        1 O2N       0.0376
     17 C17       -12.5419   49.9927    0.7007 C.ar        1 O2N      -0.0192
     18 C18       -11.6842   48.7511    2.6605 C.ar        1 O2N      -0.0192
     19 C19       -13.6861   45.3495   -1.2644 C.ar        1 O2N       0.0220
     20 C20       -16.2589   47.8444   -4.4841 C.ar        1 O2N      -0.0032
     21 C21       -15.5695   48.8075   -7.0503 C.ar        1 O2N       0.1200
     22 C22       -15.7931   49.7006   -6.0123 C.ar        1 O2N       0.1327
     23 C23       -12.2370   52.3739   -0.8375 C.ar        1 O2N       0.0839
     24 C24        -9.7928   48.7488    4.7918 C.ar        1 O2N       0.0839
     25 C25       -17.2545   44.0870   -0.8884 C.2         1 O2N      -0.1125
     26 C26       -16.4214   43.8169   -1.9091 C.2         1 O2N      -0.0447
     27 C27       -13.2638   46.4418    0.9002 C.2         1 O2N       0.2037
     28 C28       -16.4283   50.2412   -3.7308 C.2         1 O2N       0.0515
     29 C29       -15.5165   50.7899   -7.8801 C.3         1 O2N       0.1864
     30 C30       -12.5618   53.4699   -2.8844 C.3         1 O2N       0.0579
     31 C31        -8.4549   47.4812    6.2394 C.3         1 O2N       0.0579
     32 C32       -14.8386   46.2572   -1.5814 C.3         1 O2N       0.0086
     33 C33       -16.5570   47.2128   -3.1574 C.3         1 O2N       0.0003
     34 C34       -16.2672   44.6843   -3.0675 C.3         1 O2N      -0.0011
     35 C35       -12.6923   48.7658    1.5519 C.3         1 O2N       0.0982
     36 N36       -12.5888   47.5754    0.7526 N.am        1 O2N      -0.2653
     37 N37       -15.6287   46.0495   -2.8528 N.4         1 O2N       0.2715
     38 O38       -15.6183   51.3114   -3.5506 O.co2       1 O2N      -0.5668
     39 O39       -14.0541   46.2286    1.8155 O.2         1 O2N      -0.3883
     40 O40       -17.6761   50.3497   -3.2236 O.co2       1 O2N      -0.5668
     41 O41       -15.2465   49.4143   -8.2067 O.3         1 O2N      -0.2947
     42 O42       -15.6572   50.9716   -6.4573 O.3         1 O2N      -0.2890
     43 O43       -12.0648   53.5348   -1.5367 O.3         1 O2N      -0.3255
     44 O44        -8.8873   48.7851    5.8149 O.3         1 O2N      -0.3255
     45 H1        -10.8346   42.8822   -0.4077 H           1 O2N       0.0572
     46 H2        -11.8488   42.8480   -2.6130 H           1 O2N       0.0635
     47 H3        -11.5012   44.5485    1.1997 H           1 O2N       0.0651
     48 H4        -13.5698   44.4009   -3.1756 H           1 O2N       0.0570
     49 H5        -16.1347   45.9493   -5.4528 H           1 O2N       0.0445
     50 H6        -10.8214   49.3737   -0.3908 H           1 O2N       0.0534
     51 H7        -14.2067   51.0274    1.5194 H           1 O2N       0.0534
     52 H8         -9.9698   48.3171    1.4740 H           1 O2N       0.0534
     53 H9        -13.0703   49.1872    4.2122 H           1 O2N       0.0534
     54 H10       -15.5297   46.7739   -7.6201 H           1 O2N       0.0514
     55 H11       -10.5457   51.3953   -1.6388 H           1 O2N       0.0526
     56 H12       -13.9390   53.0327    0.2261 H           1 O2N       0.0526
     57 H13        -8.3808   48.3647    3.2651 H           1 O2N       0.0526
     58 H14       -11.4682   49.1874    6.0046 H           1 O2N       0.0526
     59 H15       -17.2933   43.4748   -0.1072 H           1 O2N       0.0292
     60 H16       -17.8320   44.8940   -0.8930 H           1 O2N       0.0292
     61 H17       -15.8920   42.9742   -1.8685 H           1 O2N       0.0725
     62 H18       -16.4404   51.1071   -8.3770 H           1 O2N       0.0973
     63 H19       -14.6962   51.4112   -8.2449 H           1 O2N       0.0973
     64 H20       -12.3701   54.4302   -3.3641 H           1 O2N       0.0575
     65 H21       -13.6392   53.2909   -2.9006 H           1 O2N       0.0575
     66 H22       -12.0533   52.6946   -3.4640 H           1 O2N       0.0575
     67 H23        -7.7605   47.6073    7.0700 H           1 O2N       0.0575
     68 H24        -7.9334   46.9517    5.4381 H           1 O2N       0.0575
     69 H25        -9.2955   46.8769    6.5859 H           1 O2N       0.0575
     70 H26       -14.4278   47.2722   -1.5863 H           1 O2N       0.0995
     71 H27       -15.5567   46.2101   -0.7548 H           1 O2N       0.0995
     72 H28       -17.6075   46.9107   -3.1884 H           1 O2N       0.0966
     73 H29       -16.5102   47.9557   -2.3597 H           1 O2N       0.0966
     74 H30       -17.2450   44.7529   -3.5656 H           1 O2N       0.0998
     75 H31       -15.6395   44.1471   -3.7843 H           1 O2N       0.0998
     76 H32       -13.6935   48.7847    1.9977 H           1 O2N       0.0837
     77 H33       -11.9253   47.5875    0.0376 H           1 O2N       0.1893
     78 H34       -14.9107   46.0972   -3.5799 H           1 O2N       0.2082
@<TRIPOS>BOND
     1     1     2  ar
     2     3     1  ar
     3     4     2  ar
     4    15     3  ar
     5    19     4  ar
     6     5    10  ar
     7    20     5  ar
     8     6    11  ar
     9    17     6  ar
    10     7    12  ar
    11    17     7  ar
    12     8    13  ar
    13    18     8  ar
    14     9    14  ar
    15    18     9  ar
    16    10    21  ar
    17    11    23  ar
    18    12    23  ar
    19    13    24  ar
    20    14    24  ar
    21    15    19  ar
    22    27    15   1
    23    20    16  ar
    24    16    22  ar
    25    16    28   1
    26    35    17   1
    27    35    18   1
    28    19    32   1
    29    33    20   1
    30    22    21  ar
    31    21    41   1
    32    22    42   1
    33    23    43   1
    34    24    44   1
    35    26    25   2
    36    34    26   1
    37    36    27  am
    38    27    39   2
    39    28    38  ar
    40    28    40  ar
    41    29    41   1
    42    42    29   1
    43    43    30   1
    44    44    31   1
    45    32    37   1
    46    37    33   1
    47    37    34   1
    48    35    36   1
    49     1    45   1
    50     2    46   1
    51     3    47   1
    52     4    48   1
    53     5    49   1
    54     6    50   1
    55     7    51   1
    56     8    52   1
    57     9    53   1
    58    10    54   1
    59    11    55   1
    60    12    56   1
    61    13    57   1
    62    14    58   1
    63    25    59   1
    64    25    60   1
    65    26    61   1
    66    29    62   1
    67    29    63   1
    68    30    64   1
    69    30    65   1
    70    30    66   1
    71    31    67   1
    72    31    68   1
    73    31    69   1
    74    32    70   1
    75    32    71   1
    76    33    72   1
    77    33    73   1
    78    34    74   1
    79    34    75   1
    80    35    76   1
    81    36    77   1
    82    37    78   1
@<TRIPOS>SUBSTRUCTURE
     1  O2N      1

