@<TRIPOS>MOLECULE
3zso_ligand_084
    78    82
SMALL
GAST_HUCK
****
This file was generated by PARSER (from files_GN.cpp)

@<TRIPOS>ATOM
      1 C1        -20.9996   45.2862    0.0343 C.ar        1 O2N      -0.0630
      2 C2        -21.6140   46.5416    0.1391 C.ar        1 O2N      -0.0640
      3 C3        -20.0646   45.0542   -0.9864 C.ar        1 O2N      -0.0483
      4 C4        -21.2959   47.5571   -0.7764 C.ar        1 O2N      -0.0493
      5 C5        -24.3264   50.0455   -4.4902 C.ar        1 O2N      -0.0712
      6 C6        -14.2430   44.3131   -2.4849 C.ar        1 O2N      -0.0648
      7 C7        -14.8048   46.4904   -1.5688 C.ar        1 O2N      -0.0648
      8 C8        -15.6606   45.8770   -5.6730 C.ar        1 O2N      -0.0648
      9 C9        -16.4711   47.7614   -4.3723 C.ar        1 O2N      -0.0648
     10 C10       -25.0900   50.8095   -5.3855 C.ar        1 O2N      -0.0449
     11 C11       -13.0766   44.2842   -1.6971 C.ar        1 O2N      -0.0392
     12 C12       -13.6342   46.4701   -0.7902 C.ar        1 O2N      -0.0392
     13 C13       -15.4274   46.7344   -6.7629 C.ar        1 O2N      -0.0392
     14 C14       -16.2276   48.6221   -5.4584 C.ar        1 O2N      -0.0392
     15 C15       -19.7481   46.0635   -1.9268 C.ar        1 O2N       0.0566
     16 C16       -22.5968   51.7990   -4.3992 C.ar        1 O2N       0.0376
     17 C17       -15.1318   45.4194   -2.4423 C.ar        1 O2N      -0.0192
     18 C18       -16.1811   46.3721   -4.4513 C.ar        1 O2N      -0.0192
     19 C19       -20.3912   47.3397   -1.8489 C.ar        1 O2N       0.0220
     20 C20       -23.0834   50.5193   -3.9800 C.ar        1 O2N      -0.0032
     21 C21       -24.6125   52.0682   -5.7713 C.ar        1 O2N       0.1200
     22 C22       -23.3978   52.5419   -5.2950 C.ar        1 O2N       0.1327
     23 C23       -12.7703   45.3580   -0.8380 C.ar        1 O2N       0.0839
     24 C24       -15.7035   48.1092   -6.6634 C.ar        1 O2N       0.0839
     25 C25       -19.8981   48.6039   -6.5186 C.2         1 O2N      -0.1125
     26 C26       -20.4361   47.6909   -5.7027 C.2         1 O2N      -0.0447
     27 C27       -18.7786   45.7581   -2.8609 C.2         1 O2N       0.2037
     28 C28       -21.3726   52.3833   -3.9529 C.2         1 O2N       0.0515
     29 C29       -24.4156   54.1122   -6.4274 C.3         1 O2N       0.1864
     30 C30       -11.8192   45.2172    1.3098 C.3         1 O2N       0.0579
     31 C31       -16.4580   49.7424   -8.1965 C.3         1 O2N       0.0579
     32 C32       -20.0692   48.4983   -2.7538 C.3         1 O2N       0.0086
     33 C33       -22.3248   49.6160   -3.0449 C.3         1 O2N       0.0003
     34 C34       -21.5130   47.9864   -4.7715 C.3         1 O2N      -0.0011
     35 C35       -16.3664   45.4441   -3.2894 C.3         1 O2N       0.0982
     36 N36       -17.5062   45.7650   -2.4820 N.am        1 O2N      -0.2653
     37 N37       -21.1338   48.9821   -3.7041 N.4         1 O2N       0.2715
     38 O38       -20.6532   53.2276   -4.7245 O.co2       1 O2N      -0.5668
     39 O39       -19.1282   45.4225   -3.9828 O.2         1 O2N      -0.3883
     40 O40       -21.0332   52.3976   -2.6410 O.co2       1 O2N      -0.5668
     41 O41       -25.2212   52.9343   -6.6031 O.3         1 O2N      -0.2947
     42 O42       -23.1708   53.7814   -5.7890 O.3         1 O2N      -0.2890
     43 O43       -11.6123   45.3432   -0.1120 O.3         1 O2N      -0.3255
     44 O44       -15.3798   48.9121   -7.7227 O.3         1 O2N      -0.3255
     45 H1        -21.2187   44.5508    0.7074 H           1 O2N       0.0572
     46 H2        -22.2646   46.7296    0.9055 H           1 O2N       0.0635
     47 H3        -19.5990   44.1439   -1.0147 H           1 O2N       0.0651
     48 H4        -21.7274   48.4710   -0.6360 H           1 O2N       0.0570
     49 H5        -24.6826   49.1202   -4.2266 H           1 O2N       0.0445
     50 H6        -14.4319   43.5161   -3.0979 H           1 O2N       0.0534
     51 H7        -15.4255   47.2940   -1.4908 H           1 O2N       0.0534
     52 H8        -15.4204   44.8888   -5.7733 H           1 O2N       0.0534
     53 H9        -16.8425   48.1626   -3.5107 H           1 O2N       0.0534
     54 H10       -25.9723   50.4537   -5.7568 H           1 O2N       0.0514
     55 H11       -12.4470   43.4809   -1.7446 H           1 O2N       0.0526
     56 H12       -13.4165   47.2636   -0.1862 H           1 O2N       0.0526
     57 H13       -15.0328   46.3620   -7.6250 H           1 O2N       0.0526
     58 H14       -16.4088   49.6255   -5.3649 H           1 O2N       0.0526
     59 H15       -19.1840   48.3416   -7.1586 H           1 O2N       0.0292
     60 H16       -20.2012   49.5531   -6.5004 H           1 O2N       0.0292
     61 H17       -20.1119   46.7510   -5.7737 H           1 O2N       0.0725
     62 H18       -24.9627   54.8360   -5.8162 H           1 O2N       0.0973
     63 H19       -24.2150   54.5728   -7.3965 H           1 O2N       0.0973
     64 H20       -10.8415   45.1328    1.7858 H           1 O2N       0.0575
     65 H21       -12.3967   44.3226    1.5600 H           1 O2N       0.0575
     66 H22       -12.3230   46.0994    1.7148 H           1 O2N       0.0575
     67 H23       -16.0813   50.3142   -9.0483 H           1 O2N       0.0575
     68 H24       -16.7853   50.4465   -7.4228 H           1 O2N       0.0575
     69 H25       -17.3099   49.1381   -8.5347 H           1 O2N       0.0575
     70 H26       -19.1877   48.2675   -3.3508 H           1 O2N       0.0995
     71 H27       -19.7573   49.3399   -2.1295 H           1 O2N       0.0995
     72 H28       -22.9566   48.8187   -2.6377 H           1 O2N       0.0966
     73 H29       -22.0335   50.2260   -2.1923 H           1 O2N       0.0966
     74 H30       -21.8660   47.0575   -4.3088 H           1 O2N       0.0998
     75 H31       -22.3391   48.3674   -5.3779 H           1 O2N       0.0998
     76 H32       -16.5504   44.4343   -3.6685 H           1 O2N       0.0837
     77 H33       -17.3366   46.0085   -1.5591 H           1 O2N       0.1893
     78 H34       -20.6791   49.7509   -4.1976 H           1 O2N       0.2082
@<TRIPOS>BOND
     1     1     2  ar
     2     3     1  ar
     3     4     2  ar
     4    15     3  ar
     5    19     4  ar
     6     5    10  ar
     7    20     5  ar
     8     6    11  ar
     9    17     6  ar
    10     7    12  ar
    11    17     7  ar
    12     8    13  ar
    13    18     8  ar
    14     9    14  ar
    15    18     9  ar
    16    10    21  ar
    17    11    23  ar
    18    12    23  ar
    19    13    24  ar
    20    14    24  ar
    21    15    19  ar
    22    27    15   1
    23    20    16  ar
    24    16    22  ar
    25    16    28   1
    26    35    17   1
    27    35    18   1
    28    19    32   1
    29    33    20   1
    30    22    21  ar
    31    21    41   1
    32    22    42   1
    33    23    43   1
    34    24    44   1
    35    26    25   2
    36    34    26   1
    37    36    27  am
    38    27    39   2
    39    28    38  ar
    40    28    40  ar
    41    29    41   1
    42    42    29   1
    43    43    30   1
    44    44    31   1
    45    32    37   1
    46    37    33   1
    47    37    34   1
    48    35    36   1
    49     1    45   1
    50     2    46   1
    51     3    47   1
    52     4    48   1
    53     5    49   1
    54     6    50   1
    55     7    51   1
    56     8    52   1
    57     9    53   1
    58    10    54   1
    59    11    55   1
    60    12    56   1
    61    13    57   1
    62    14    58   1
    63    25    59   1
    64    25    60   1
    65    26    61   1
    66    29    62   1
    67    29    63   1
    68    30    64   1
    69    30    65   1
    70    30    66   1
    71    31    67   1
    72    31    68   1
    73    31    69   1
    74    32    70   1
    75    32    71   1
    76    33    72   1
    77    33    73   1
    78    34    74   1
    79    34    75   1
    80    35    76   1
    81    36    77   1
    82    37    78   1
@<TRIPOS>SUBSTRUCTURE
     1  O2N      1

