@<TRIPOS>MOLECULE
3zso_ligand_020
    78    82
SMALL
GAST_HUCK
****
This file was generated by PARSER (from files_GN.cpp)

@<TRIPOS>ATOM
      1 C1        -21.8010   45.8674   -1.8136 C.ar        1 O2N      -0.0630
      2 C2        -20.7611   45.4860   -0.9562 C.ar        1 O2N      -0.0640
      3 C3        -21.5496   46.0350   -3.1844 C.ar        1 O2N      -0.0483
      4 C4        -19.4745   45.2638   -1.4764 C.ar        1 O2N      -0.0493
      5 C5        -16.3594   47.2931   -5.7643 C.ar        1 O2N      -0.0712
      6 C6        -20.7433   49.7424   -8.2591 C.ar        1 O2N      -0.0648
      7 C7        -19.2015   49.6063   -6.4120 C.ar        1 O2N      -0.0648
      8 C8        -21.3148   46.1213   -9.0148 C.ar        1 O2N      -0.0648
      9 C9        -22.8359   47.2236   -7.4736 C.ar        1 O2N      -0.0648
     10 C10       -15.7306   47.6999   -6.9518 C.ar        1 O2N      -0.0449
     11 C11       -20.4384   51.1097   -8.4090 C.ar        1 O2N      -0.0392
     12 C12       -18.8850   50.9683   -6.5604 C.ar        1 O2N      -0.0392
     13 C13       -22.4118   45.6903   -9.7856 C.ar        1 O2N      -0.0392
     14 C14       -23.9308   46.7898   -8.2397 C.ar        1 O2N      -0.0392
     15 C15       -20.2615   45.8014   -3.7359 C.ar        1 O2N       0.0566
     16 C16       -16.0820   49.5319   -4.8065 C.ar        1 O2N       0.0376
     17 C17       -20.1368   48.9552   -7.2480 C.ar        1 O2N      -0.0192
     18 C18       -21.5085   46.9096   -7.8527 C.ar        1 O2N      -0.0192
     19 C19       -19.1972   45.4043   -2.8612 C.ar        1 O2N       0.0220
     20 C20       -16.4918   48.1642   -4.6499 C.ar        1 O2N      -0.0032
     21 C21       -15.2535   49.0111   -7.0488 C.ar        1 O2N       0.1200
     22 C22       -15.4316   49.9090   -6.0085 C.ar        1 O2N       0.1327
     23 C23       -19.5092   51.7414   -7.5614 C.ar        1 O2N       0.0839
     24 C24       -23.7262   46.0394   -9.4137 C.ar        1 O2N       0.0839
     25 C25       -14.5308   43.5998   -2.4737 C.2         1 O2N      -0.1125
     26 C26       -15.0123   44.7721   -2.0369 C.2         1 O2N      -0.0447
     27 C27       -20.1165   45.9646   -5.1099 C.2         1 O2N       0.2037
     28 C28       -16.3495   50.5401   -3.8426 C.2         1 O2N       0.0515
     29 C29       -14.5475   50.9387   -7.7142 C.3         1 O2N       0.1864
     30 C30       -18.7732   53.9360   -6.7843 C.3         1 O2N       0.0579
     31 C31       -25.1804   46.5745  -11.1740 C.3         1 O2N       0.0579
     32 C32       -17.7704   45.1784   -3.2812 C.3         1 O2N       0.0086
     33 C33       -17.0943   47.6478   -3.3677 C.3         1 O2N       0.0003
     34 C34       -15.3686   45.8814   -2.9052 C.3         1 O2N      -0.0011
     35 C35       -20.3451   47.4664   -7.0888 C.3         1 O2N       0.0982
     36 N36       -20.4708   47.1079   -5.6955 N.am        1 O2N      -0.2653
     37 N37       -16.8227   46.2616   -2.8305 N.4         1 O2N       0.2715
     38 O38       -17.5883   50.6636   -3.3165 O.co2       1 O2N      -0.5668
     39 O39       -19.7271   45.0133   -5.7752 O.2         1 O2N      -0.3883
     40 O40       -15.5140   51.5850   -3.6395 O.co2       1 O2N      -0.5668
     41 O41       -14.6266   49.5568   -8.1030 O.3         1 O2N      -0.2947
     42 O42       -14.9588   51.1273   -6.3498 O.3         1 O2N      -0.2890
     43 O43       -19.2414   53.0695   -7.8298 O.3         1 O2N      -0.3255
     44 O44       -24.7888   45.6200  -10.1698 O.3         1 O2N      -0.3255
     45 H1        -22.7407   46.0214   -1.4362 H           1 O2N       0.0572
     46 H2        -20.9371   45.3703    0.0438 H           1 O2N       0.0635
     47 H3        -22.3366   46.3093   -3.7820 H           1 O2N       0.0651
     48 H4        -18.7322   44.9935   -0.8275 H           1 O2N       0.0570
     49 H5        -16.7123   46.3378   -5.7301 H           1 O2N       0.0445
     50 H6        -21.4003   49.3285   -8.9248 H           1 O2N       0.0534
     51 H7        -18.7325   49.0860   -5.6711 H           1 O2N       0.0534
     52 H8        -20.3723   45.8769   -9.3259 H           1 O2N       0.0534
     53 H9        -23.0104   47.7939   -6.6404 H           1 O2N       0.0534
     54 H10       -15.6251   47.0428   -7.7274 H           1 O2N       0.0514
     55 H11       -20.8890   51.6443   -9.1581 H           1 O2N       0.0526
     56 H12       -18.1909   51.3858   -5.9391 H           1 O2N       0.0526
     57 H13       -22.2518   45.1357  -10.6314 H           1 O2N       0.0526
     58 H14       -24.8824   47.0386   -7.9524 H           1 O2N       0.0526
     59 H15       -14.2863   42.8908   -1.8254 H           1 O2N       0.0292
     60 H16       -14.4137   43.4158   -3.4404 H           1 O2N       0.0292
     61 H17       -15.1321   44.8976   -1.0589 H           1 O2N       0.0725
     62 H18       -15.1938   51.5314   -8.3653 H           1 O2N       0.0973
     63 H19       -13.5212   51.2914   -7.8325 H           1 O2N       0.0973
     64 H20       -18.7998   54.9622   -7.1552 H           1 O2N       0.0575
     65 H21       -17.7403   53.6986   -6.5168 H           1 O2N       0.0575
     66 H22       -19.4079   53.8754   -5.8946 H           1 O2N       0.0575
     67 H23       -26.0079   46.1558  -11.7475 H           1 O2N       0.0575
     68 H24       -24.3610   46.7844  -11.8662 H           1 O2N       0.0575
     69 H25       -25.5219   47.5076  -10.7195 H           1 O2N       0.0575
     70 H26       -17.6746   45.0172   -4.3499 H           1 O2N       0.0995
     71 H27       -17.4579   44.2321   -2.8283 H           1 O2N       0.0995
     72 H28       -18.1665   47.8340   -3.4244 H           1 O2N       0.0966
     73 H29       -16.7373   48.2803   -2.5553 H           1 O2N       0.0966
     74 H30       -15.0930   45.6734   -3.9420 H           1 O2N       0.0998
     75 H31       -14.7538   46.7223   -2.5718 H           1 O2N       0.0998
     76 H32       -19.4168   47.0257   -7.4634 H           1 O2N       0.0837
     77 H33       -20.7920   47.8079   -5.1038 H           1 O2N       0.1893
     78 H34       -17.0172   46.3525   -1.8272 H           1 O2N       0.2082
@<TRIPOS>BOND
     1     1     2  ar
     2     3     1  ar
     3     4     2  ar
     4    15     3  ar
     5    19     4  ar
     6     5    10  ar
     7    20     5  ar
     8     6    11  ar
     9    17     6  ar
    10     7    12  ar
    11    17     7  ar
    12     8    13  ar
    13    18     8  ar
    14     9    14  ar
    15    18     9  ar
    16    10    21  ar
    17    11    23  ar
    18    12    23  ar
    19    13    24  ar
    20    14    24  ar
    21    15    19  ar
    22    27    15   1
    23    20    16  ar
    24    16    22  ar
    25    16    28   1
    26    35    17   1
    27    35    18   1
    28    19    32   1
    29    33    20   1
    30    22    21  ar
    31    21    41   1
    32    22    42   1
    33    23    43   1
    34    24    44   1
    35    26    25   2
    36    34    26   1
    37    36    27  am
    38    27    39   2
    39    28    38  ar
    40    28    40  ar
    41    29    41   1
    42    42    29   1
    43    43    30   1
    44    44    31   1
    45    32    37   1
    46    37    33   1
    47    37    34   1
    48    35    36   1
    49     1    45   1
    50     2    46   1
    51     3    47   1
    52     4    48   1
    53     5    49   1
    54     6    50   1
    55     7    51   1
    56     8    52   1
    57     9    53   1
    58    10    54   1
    59    11    55   1
    60    12    56   1
    61    13    57   1
    62    14    58   1
    63    25    59   1
    64    25    60   1
    65    26    61   1
    66    29    62   1
    67    29    63   1
    68    30    64   1
    69    30    65   1
    70    30    66   1
    71    31    67   1
    72    31    68   1
    73    31    69   1
    74    32    70   1
    75    32    71   1
    76    33    72   1
    77    33    73   1
    78    34    74   1
    79    34    75   1
    80    35    76   1
    81    36    77   1
    82    37    78   1
@<TRIPOS>SUBSTRUCTURE
     1  O2N      1

