@<TRIPOS>MOLECULE
3zso_ligand_081
    78    82
SMALL
GAST_HUCK
****
This file was generated by PARSER (from files_GN.cpp)

@<TRIPOS>ATOM
      1 C1        -18.7330   43.9518   -6.5748 C.ar        1 O2N      -0.0630
      2 C2        -17.7406   43.1514   -5.9872 C.ar        1 O2N      -0.0640
      3 C3        -19.1564   45.1334   -5.9391 C.ar        1 O2N      -0.0483
      4 C4        -17.1490   43.5423   -4.7751 C.ar        1 O2N      -0.0493
      5 C5        -12.4496   44.9649   -2.3728 C.ar        1 O2N      -0.0712
      6 C6        -21.6878   47.0428    0.2819 C.ar        1 O2N      -0.0648
      7 C7        -20.5800   45.0347   -0.4942 C.ar        1 O2N      -0.0648
      8 C8        -21.6914   49.3355   -2.4545 C.ar        1 O2N      -0.0648
      9 C9        -22.6895   47.3248   -3.3854 C.ar        1 O2N      -0.0648
     10 C10       -11.0586   44.8764   -2.1704 C.ar        1 O2N      -0.0449
     11 C11       -22.0062   46.3997    1.4944 C.ar        1 O2N      -0.0392
     12 C12       -20.8893   44.3925    0.7194 C.ar        1 O2N      -0.0392
     13 C13       -22.7061   50.1138   -3.0425 C.ar        1 O2N      -0.0392
     14 C14       -23.6988   48.1042   -3.9836 C.ar        1 O2N      -0.0392
     15 C15       -18.6144   45.5060   -4.6874 C.ar        1 O2N       0.0566
     16 C16       -12.7598   45.7555   -0.0692 C.ar        1 O2N       0.0376
     17 C17       -20.9876   46.3714   -0.7553 C.ar        1 O2N      -0.0192
     18 C18       -21.6607   47.9297   -2.6229 C.ar        1 O2N      -0.0192
     19 C19       -17.5784   44.7120   -4.1019 C.ar        1 O2N       0.0220
     20 C20       -13.3231   45.4202   -1.3436 C.ar        1 O2N      -0.0032
     21 C21       -10.5270   45.2479   -0.9285 C.ar        1 O2N       0.1200
     22 C22       -11.3569   45.6770    0.0942 C.ar        1 O2N       0.1327
     23 C23       -21.6056   45.0691    1.7245 C.ar        1 O2N       0.0839
     24 C24       -23.7018   49.5051   -3.8297 C.ar        1 O2N       0.0839
     25 C25       -15.4353   46.2760   -6.4470 C.2         1 O2N      -0.1125
     26 C26       -15.1032   45.5924   -5.3471 C.2         1 O2N      -0.0447
     27 C27       -19.2062   46.5589   -4.0178 C.2         1 O2N       0.2037
     28 C28       -13.5301   46.1545    1.0502 C.2         1 O2N       0.0515
     29 C29        -9.3312   45.4938    0.8464 C.3         1 O2N       0.1864
     30 C30       -22.6051   43.2872    2.9351 C.3         1 O2N       0.0579
     31 C31       -24.3820   50.7870   -5.6780 C.3         1 O2N       0.0579
     32 C32       -16.8880   45.0538   -2.8189 C.3         1 O2N       0.0086
     33 C33       -14.7969   45.5758   -1.5850 C.3         1 O2N       0.0003
     34 C34       -14.9896   46.1837   -4.0222 C.3         1 O2N      -0.0011
     35 C35       -20.5679   47.1101   -2.0034 C.3         1 O2N       0.0982
     36 N36       -19.9867   46.2392   -2.9894 N.am        1 O2N      -0.2653
     37 N37       -15.3901   45.2293   -2.9285 N.4         1 O2N       0.2715
     38 O38       -14.4798   45.3383    1.5644 O.co2       1 O2N      -0.5668
     39 O39       -18.9889   47.7163   -4.3523 O.2         1 O2N      -0.3883
     40 O40       -13.1830   47.2371    1.7861 O.co2       1 O2N      -0.5668
     41 O41        -9.2305   45.2459   -0.5664 O.3         1 O2N      -0.2947
     42 O42       -10.6403   45.9621    1.2052 O.3         1 O2N      -0.2890
     43 O43       -21.8357   44.5024    2.9517 O.3         1 O2N      -0.3255
     44 O44       -24.7032   50.2589   -4.3787 O.3         1 O2N      -0.3255
     45 H1        -19.1645   43.6650   -7.4594 H           1 O2N       0.0572
     46 H2        -17.4459   42.2799   -6.4435 H           1 O2N       0.0635
     47 H3        -19.9009   45.6823   -6.3764 H           1 O2N       0.0651
     48 H4        -16.4173   42.9498   -4.3758 H           1 O2N       0.0570
     49 H5        -12.8129   44.7062   -3.2908 H           1 O2N       0.0445
     50 H6        -21.9618   48.0221    0.1709 H           1 O2N       0.0534
     51 H7        -20.0155   44.5122   -1.1668 H           1 O2N       0.0534
     52 H8        -20.9765   49.8069   -1.8933 H           1 O2N       0.0534
     53 H9        -22.7030   46.3090   -3.5156 H           1 O2N       0.0534
     54 H10       -10.4401   44.5506   -2.9157 H           1 O2N       0.0514
     55 H11       -22.5058   46.9148    2.2243 H           1 O2N       0.0526
     56 H12       -20.5608   43.4378    0.8837 H           1 O2N       0.0526
     57 H13       -22.7179   51.1258   -2.8969 H           1 O2N       0.0526
     58 H14       -24.4335   47.6503   -4.5291 H           1 O2N       0.0526
     59 H15       -15.4272   45.8289   -7.3318 H           1 O2N       0.0292
     60 H16       -15.6602   47.2436   -6.4087 H           1 O2N       0.0292
     61 H17       -14.8535   44.6341   -5.4532 H           1 O2N       0.0725
     62 H18        -8.5896   46.2375    1.1399 H           1 O2N       0.0973
     63 H19        -9.1258   44.5683    1.3880 H           1 O2N       0.0973
     64 H20       -22.8478   43.0242    3.9676 H           1 O2N       0.0575
     65 H21       -22.0250   42.4697    2.5005 H           1 O2N       0.0575
     66 H22       -23.5380   43.4094    2.3770 H           1 O2N       0.0575
     67 H23       -25.2283   51.3830   -6.0236 H           1 O2N       0.0575
     68 H24       -24.2128   49.9862   -6.4032 H           1 O2N       0.0575
     69 H25       -23.5033   51.4377   -5.6416 H           1 O2N       0.0575
     70 H26       -17.1066   44.2405   -2.1217 H           1 O2N       0.0995
     71 H27       -17.2995   45.9599   -2.3709 H           1 O2N       0.0995
     72 H28       -15.0682   46.6137   -1.3561 H           1 O2N       0.0966
     73 H29       -15.2715   44.9417   -0.8354 H           1 O2N       0.0966
     74 H30       -15.5679   47.1174   -3.9524 H           1 O2N       0.0998
     75 H31       -13.9366   46.4544   -3.9232 H           1 O2N       0.0998
     76 H32       -19.7626   47.7686   -1.6653 H           1 O2N       0.0837
     77 H33       -20.1062   45.2880   -2.8467 H           1 O2N       0.1893
     78 H34       -15.0112   44.3109   -3.1700 H           1 O2N       0.2082
@<TRIPOS>BOND
     1     1     2  ar
     2     3     1  ar
     3     4     2  ar
     4    15     3  ar
     5    19     4  ar
     6     5    10  ar
     7    20     5  ar
     8     6    11  ar
     9    17     6  ar
    10     7    12  ar
    11    17     7  ar
    12     8    13  ar
    13    18     8  ar
    14     9    14  ar
    15    18     9  ar
    16    10    21  ar
    17    11    23  ar
    18    12    23  ar
    19    13    24  ar
    20    14    24  ar
    21    15    19  ar
    22    27    15   1
    23    20    16  ar
    24    16    22  ar
    25    16    28   1
    26    35    17   1
    27    35    18   1
    28    19    32   1
    29    33    20   1
    30    22    21  ar
    31    21    41   1
    32    22    42   1
    33    23    43   1
    34    24    44   1
    35    26    25   2
    36    34    26   1
    37    36    27  am
    38    27    39   2
    39    28    38  ar
    40    28    40  ar
    41    29    41   1
    42    42    29   1
    43    43    30   1
    44    44    31   1
    45    32    37   1
    46    37    33   1
    47    37    34   1
    48    35    36   1
    49     1    45   1
    50     2    46   1
    51     3    47   1
    52     4    48   1
    53     5    49   1
    54     6    50   1
    55     7    51   1
    56     8    52   1
    57     9    53   1
    58    10    54   1
    59    11    55   1
    60    12    56   1
    61    13    57   1
    62    14    58   1
    63    25    59   1
    64    25    60   1
    65    26    61   1
    66    29    62   1
    67    29    63   1
    68    30    64   1
    69    30    65   1
    70    30    66   1
    71    31    67   1
    72    31    68   1
    73    31    69   1
    74    32    70   1
    75    32    71   1
    76    33    72   1
    77    33    73   1
    78    34    74   1
    79    34    75   1
    80    35    76   1
    81    36    77   1
    82    37    78   1
@<TRIPOS>SUBSTRUCTURE
     1  O2N      1

