@<TRIPOS>MOLECULE
3zso_ligand_009
    78    82
SMALL
GAST_HUCK
****
This file was generated by PARSER (from files_GN.cpp)

@<TRIPOS>ATOM
      1 C1        -17.6239   48.5153   -7.3606 C.ar        1 O2N      -0.0630
      2 C2        -16.7909   48.9726   -6.3353 C.ar        1 O2N      -0.0640
      3 C3        -18.6363   47.5849   -7.0679 C.ar        1 O2N      -0.0483
      4 C4        -16.9536   48.4778   -5.0333 C.ar        1 O2N      -0.0493
      5 C5        -13.6474   45.0851   -3.5009 C.ar        1 O2N      -0.0712
      6 C6        -19.4795   42.4422   -7.1997 C.ar        1 O2N      -0.0648
      7 C7        -21.8497   41.9933   -7.4627 C.ar        1 O2N      -0.0648
      8 C8        -21.9681   44.9711   -8.9310 C.ar        1 O2N      -0.0648
      9 C9        -23.4161   45.4066   -7.0232 C.ar        1 O2N      -0.0648
     10 C10       -12.5509   44.2616   -3.1751 C.ar        1 O2N      -0.0449
     11 C11       -19.1801   41.1678   -7.7054 C.ar        1 O2N      -0.0392
     12 C12       -21.5536   40.7198   -7.9742 C.ar        1 O2N      -0.0392
     13 C13       -22.9477   45.5006   -9.7922 C.ar        1 O2N      -0.0392
     14 C14       -24.3924   45.9348   -7.8856 C.ar        1 O2N      -0.0392
     15 C15       -18.8354   47.0645   -5.7563 C.ar        1 O2N       0.0566
     16 C16       -14.0425   45.5826   -1.1224 C.ar        1 O2N       0.0376
     17 C17       -20.8204   42.8980   -7.0917 C.ar        1 O2N      -0.0192
     18 C18       -22.1956   44.8991   -7.5328 C.ar        1 O2N      -0.0192
     19 C19       -17.9652   47.5256   -4.7050 C.ar        1 O2N       0.0220
     20 C20       -14.4009   45.7649   -2.4984 C.ar        1 O2N      -0.0032
     21 C21       -12.2210   44.0952   -1.8216 C.ar        1 O2N       0.1200
     22 C22       -12.9393   44.7386   -0.8225 C.ar        1 O2N       0.1327
     23 C23       -20.2163   40.3058   -8.1193 C.ar        1 O2N       0.0839
     24 C24       -24.1701   45.9659   -9.2748 C.ar        1 O2N       0.0839
     25 C25       -16.4336   44.1673   -5.4743 C.2         1 O2N      -0.1125
     26 C26       -16.3089   44.0253   -4.1463 C.2         1 O2N      -0.0447
     27 C27       -19.8696   46.1310   -5.5951 C.2         1 O2N       0.2037
     28 C28       -14.7081   46.2215   -0.0412 C.2         1 O2N       0.0515
     29 C29       -11.1335   43.8831    0.0194 C.3         1 O2N       0.1864
     30 C30       -20.1138   38.9186  -10.0089 C.3         1 O2N       0.0579
     31 C31       -26.0707   45.5180  -10.5774 C.3         1 O2N       0.0579
     32 C32       -17.9915   47.0733   -3.2699 C.3         1 O2N       0.0086
     33 C33       -15.5241   46.6524   -2.9462 C.3         1 O2N       0.0003
     34 C34       -17.1587   44.6778   -3.1530 C.3         1 O2N      -0.0011
     35 C35       -21.1904   44.2723   -6.6194 C.3         1 O2N       0.0982
     36 N36       -20.0830   45.1875   -6.5154 N.am        1 O2N      -0.2653
     37 N37       -16.9222   46.1204   -2.7787 N.4         1 O2N       0.2715
     38 O38       -14.7823   47.5746    0.0201 O.co2       1 O2N      -0.5668
     39 O39       -20.6845   46.2831   -4.6910 O.2         1 O2N      -0.3883
     40 O40       -14.9164   45.5680    1.1239 O.co2       1 O2N      -0.5668
     41 O41       -11.2041   43.3719   -1.3245 O.3         1 O2N      -0.2947
     42 O42       -12.3991   44.4675    0.3845 O.3         1 O2N      -0.2890
     43 O43       -19.9395   39.0517   -8.5880 O.3         1 O2N      -0.3255
     44 O44       -25.1197   46.4919  -10.1116 O.3         1 O2N      -0.3255
     45 H1        -17.5076   48.8770   -8.3148 H           1 O2N       0.0572
     46 H2        -16.0623   49.6639   -6.5333 H           1 O2N       0.0635
     47 H3        -19.2387   47.3023   -7.8440 H           1 O2N       0.0651
     48 H4        -16.3199   48.8289   -4.3144 H           1 O2N       0.0570
     49 H5        -13.8788   45.2005   -4.4923 H           1 O2N       0.0445
     50 H6        -18.7047   43.0421   -6.9152 H           1 O2N       0.0534
     51 H7        -22.8284   42.2744   -7.3785 H           1 O2N       0.0534
     52 H8        -21.0949   44.6226   -9.3291 H           1 O2N       0.0534
     53 H9        -23.6077   45.3782   -6.0209 H           1 O2N       0.0534
     54 H10       -12.0030   43.7961   -3.8992 H           1 O2N       0.0514
     55 H11       -18.2038   40.8613   -7.7786 H           1 O2N       0.0526
     56 H12       -22.3171   40.0946   -8.2377 H           1 O2N       0.0526
     57 H13       -22.7682   45.5381  -10.7976 H           1 O2N       0.0526
     58 H14       -25.2679   46.2887   -7.4983 H           1 O2N       0.0526
     59 H15       -15.8488   43.6497   -6.0920 H           1 O2N       0.0292
     60 H16       -17.1037   44.7776   -5.8708 H           1 O2N       0.0292
     61 H17       -15.6207   43.3828   -3.8228 H           1 O2N       0.0725
     62 H18       -10.3485   44.6414    0.0764 H           1 O2N       0.0973
     63 H19       -10.8702   43.0915    0.7202 H           1 O2N       0.0973
     64 H20       -19.8775   37.8889  -10.2769 H           1 O2N       0.0575
     65 H21       -19.4360   39.5805  -10.5562 H           1 O2N       0.0575
     66 H22       -21.1455   39.1193  -10.3121 H           1 O2N       0.0575
     67 H23       -26.7829   46.0256  -11.2276 H           1 O2N       0.0575
     68 H24       -26.6277   45.0701   -9.7500 H           1 O2N       0.0575
     69 H25       -25.5852   44.7286  -11.1571 H           1 O2N       0.0575
     70 H26       -18.9617   46.6657   -2.9970 H           1 O2N       0.0995
     71 H27       -17.9384   47.9659   -2.6401 H           1 O2N       0.0995
     72 H28       -15.3895   46.9437   -3.9961 H           1 O2N       0.0966
     73 H29       -15.4467   47.5798   -2.3659 H           1 O2N       0.0966
     74 H30       -17.0408   44.1202   -2.2193 H           1 O2N       0.0998
     75 H31       -18.1941   44.5139   -3.4630 H           1 O2N       0.0998
     76 H32       -21.6218   44.1297   -5.6199 H           1 O2N       0.0837
     77 H33       -19.4524   45.1671   -7.2550 H           1 O2N       0.1893
     78 H34       -17.0695   46.1471   -1.7602 H           1 O2N       0.2082
@<TRIPOS>BOND
     1     1     2  ar
     2     3     1  ar
     3     4     2  ar
     4    15     3  ar
     5    19     4  ar
     6     5    10  ar
     7    20     5  ar
     8     6    11  ar
     9    17     6  ar
    10     7    12  ar
    11    17     7  ar
    12     8    13  ar
    13    18     8  ar
    14     9    14  ar
    15    18     9  ar
    16    10    21  ar
    17    11    23  ar
    18    12    23  ar
    19    13    24  ar
    20    14    24  ar
    21    15    19  ar
    22    27    15   1
    23    20    16  ar
    24    16    22  ar
    25    16    28   1
    26    35    17   1
    27    35    18   1
    28    19    32   1
    29    33    20   1
    30    22    21  ar
    31    21    41   1
    32    22    42   1
    33    23    43   1
    34    24    44   1
    35    26    25   2
    36    34    26   1
    37    36    27  am
    38    27    39   2
    39    28    38  ar
    40    28    40  ar
    41    29    41   1
    42    42    29   1
    43    43    30   1
    44    44    31   1
    45    32    37   1
    46    37    33   1
    47    37    34   1
    48    35    36   1
    49     1    45   1
    50     2    46   1
    51     3    47   1
    52     4    48   1
    53     5    49   1
    54     6    50   1
    55     7    51   1
    56     8    52   1
    57     9    53   1
    58    10    54   1
    59    11    55   1
    60    12    56   1
    61    13    57   1
    62    14    58   1
    63    25    59   1
    64    25    60   1
    65    26    61   1
    66    29    62   1
    67    29    63   1
    68    30    64   1
    69    30    65   1
    70    30    66   1
    71    31    67   1
    72    31    68   1
    73    31    69   1
    74    32    70   1
    75    32    71   1
    76    33    72   1
    77    33    73   1
    78    34    74   1
    79    34    75   1
    80    35    76   1
    81    36    77   1
    82    37    78   1
@<TRIPOS>SUBSTRUCTURE
     1  O2N      1

