@<TRIPOS>MOLECULE
3zso_ligand_035
    78    82
SMALL
GAST_HUCK
****
This file was generated by PARSER (from files_GN.cpp)

@<TRIPOS>ATOM
      1 C1        -11.0157   47.1233    3.6267 C.ar        1 O2N      -0.0630
      2 C2        -11.5192   48.4299    3.6427 C.ar        1 O2N      -0.0640
      3 C3        -11.2267   46.3045    2.5049 C.ar        1 O2N      -0.0483
      4 C4        -12.1979   48.9283    2.5222 C.ar        1 O2N      -0.0493
      5 C5        -13.4766   52.8425    0.4388 C.ar        1 O2N      -0.0712
      6 C6        -13.1980   45.6159   -3.0934 C.ar        1 O2N      -0.0648
      7 C7        -13.6350   43.4855   -2.0155 C.ar        1 O2N      -0.0648
      8 C8        -10.5037   42.3509   -2.2771 C.ar        1 O2N      -0.0648
      9 C9        -10.4202   42.9790    0.0609 C.ar        1 O2N      -0.0648
     10 C10       -14.1386   53.9244    1.0440 C.ar        1 O2N      -0.0449
     11 C11       -14.5026   45.6203   -3.6156 C.ar        1 O2N      -0.0392
     12 C12       -14.9428   43.4935   -2.5290 C.ar        1 O2N      -0.0392
     13 C13        -9.9860   41.0802   -1.9559 C.ar        1 O2N      -0.0392
     14 C14        -9.9160   41.7070    0.3837 C.ar        1 O2N      -0.0392
     15 C15       -11.9133   46.7900    1.3645 C.ar        1 O2N       0.0566
     16 C16       -15.4298   52.3850   -0.9733 C.ar        1 O2N       0.0376
     17 C17       -12.7364   44.5542   -2.2770 C.ar        1 O2N      -0.0192
     18 C18       -10.7449   43.3259   -1.2743 C.ar        1 O2N      -0.0192
     19 C19       -12.3671   48.1451    1.3507 C.ar        1 O2N       0.0220
     20 C20       -14.0972   52.0484   -0.5656 C.ar        1 O2N      -0.0032
     21 C21       -15.4393   54.2314    0.6356 C.ar        1 O2N       0.1200
     22 C22       -16.0722   53.4811   -0.3441 C.ar        1 O2N       0.1327
     23 C23       -15.3934   44.5759   -3.3073 C.ar        1 O2N       0.0839
     24 C24        -9.6887   40.7488   -0.6212 C.ar        1 O2N       0.0839
     25 C25        -9.2380   49.2289   -1.8654 C.2         1 O2N      -0.1125
     26 C26       -10.5304   49.3781   -1.5748 C.2         1 O2N      -0.0447
     27 C27       -12.1816   45.8707    0.3590 C.2         1 O2N       0.2037
     28 C28       -16.1207   51.7290   -2.0165 C.2         1 O2N       0.0515
     29 C29       -17.2529   55.2454    0.0920 C.3         1 O2N       0.1864
     30 C30       -17.5743   45.3539   -2.9657 C.3         1 O2N       0.0579
     31 C31        -8.0143   39.3941    0.3705 C.3         1 O2N       0.0579
     32 C32       -13.0246   48.8132    0.1857 C.3         1 O2N       0.0086
     33 C33       -13.2873   50.9391   -1.1683 C.3         1 O2N       0.0003
     34 C34       -10.9789   50.1864   -0.4522 C.3         1 O2N      -0.0011
     35 C35       -11.3653   44.6459   -1.6617 C.3         1 O2N       0.0982
     36 N36       -11.3231   45.6772   -0.6425 N.am        1 O2N      -0.2653
     37 N37       -12.4598   50.1721   -0.1631 N.4         1 O2N       0.2715
     38 O38       -17.4590   51.5437   -1.9558 O.co2       1 O2N      -0.5668
     39 O39       -13.1367   45.1228    0.5247 O.2         1 O2N      -0.3883
     40 O40       -15.5533   51.6508   -3.2420 O.co2       1 O2N      -0.5668
     41 O41       -16.1994   55.2550    1.0698 O.3         1 O2N      -0.2947
     42 O42       -17.2968   53.9912   -0.6118 O.3         1 O2N      -0.2890
     43 O43       -16.6710   44.5935   -3.7894 O.3         1 O2N      -0.3255
     44 O44        -9.2735   39.4772   -0.3190 O.3         1 O2N      -0.3255
     45 H1        -10.5113   46.7649    4.4392 H           1 O2N       0.0572
     46 H2        -11.3828   49.0219    4.4645 H           1 O2N       0.0635
     47 H3        -10.8812   45.3429    2.5377 H           1 O2N       0.0651
     48 H4        -12.5498   49.8893    2.5624 H           1 O2N       0.0570
     49 H5        -12.5204   52.6529    0.7389 H           1 O2N       0.0445
     50 H6        -12.5809   46.4055   -3.2983 H           1 O2N       0.0534
     51 H7        -13.3564   42.7021   -1.4221 H           1 O2N       0.0534
     52 H8        -10.7258   42.5551   -3.2560 H           1 O2N       0.0534
     53 H9        -10.5603   43.6387    0.8252 H           1 O2N       0.0534
     54 H10       -13.6733   54.4919    1.7561 H           1 O2N       0.0514
     55 H11       -14.8131   46.3978   -4.1999 H           1 O2N       0.0526
     56 H12       -15.5778   42.7222   -2.3092 H           1 O2N       0.0526
     57 H13        -9.8494   40.3868   -2.6988 H           1 O2N       0.0526
     58 H14        -9.7274   41.4769    1.3616 H           1 O2N       0.0526
     59 H15        -8.9613   48.6827   -2.6414 H           1 O2N       0.0292
     60 H16        -8.5305   49.6705   -1.3238 H           1 O2N       0.0292
     61 H17       -11.2063   48.9480   -2.1661 H           1 O2N       0.0725
     62 H18       -17.0843   56.0550   -0.6251 H           1 O2N       0.0973
     63 H19       -18.2076   55.4174    0.5899 H           1 O2N       0.0973
     64 H20       -18.5648   45.3070   -3.4172 H           1 O2N       0.0575
     65 H21       -17.2747   46.4035   -2.9070 H           1 O2N       0.0575
     66 H22       -17.6402   44.9380   -1.9567 H           1 O2N       0.0575
     67 H23        -7.7785   38.3410    0.5237 H           1 O2N       0.0575
     68 H24        -8.0621   39.8744    1.3510 H           1 O2N       0.0575
     69 H25        -7.2100   39.8431   -0.2155 H           1 O2N       0.0575
     70 H26       -14.0787   48.9351    0.4532 H           1 O2N       0.0995
     71 H27       -13.0024   48.1751   -0.7024 H           1 O2N       0.0995
     72 H28       -12.6540   51.4049   -1.9284 H           1 O2N       0.0966
     73 H29       -13.9221   50.2428   -1.7139 H           1 O2N       0.0966
     74 H30       -10.6627   51.2186   -0.6374 H           1 O2N       0.0998
     75 H31       -10.4384   49.8619    0.4426 H           1 O2N       0.0998
     76 H32       -10.6941   45.0234   -2.4402 H           1 O2N       0.0837
     77 H33       -10.5703   46.2879   -0.6860 H           1 O2N       0.1893
     78 H34       -12.5461   50.7107    0.7001 H           1 O2N       0.2082
@<TRIPOS>BOND
     1     1     2  ar
     2     3     1  ar
     3     4     2  ar
     4    15     3  ar
     5    19     4  ar
     6     5    10  ar
     7    20     5  ar
     8     6    11  ar
     9    17     6  ar
    10     7    12  ar
    11    17     7  ar
    12     8    13  ar
    13    18     8  ar
    14     9    14  ar
    15    18     9  ar
    16    10    21  ar
    17    11    23  ar
    18    12    23  ar
    19    13    24  ar
    20    14    24  ar
    21    15    19  ar
    22    27    15   1
    23    20    16  ar
    24    16    22  ar
    25    16    28   1
    26    35    17   1
    27    35    18   1
    28    19    32   1
    29    33    20   1
    30    22    21  ar
    31    21    41   1
    32    22    42   1
    33    23    43   1
    34    24    44   1
    35    26    25   2
    36    34    26   1
    37    36    27  am
    38    27    39   2
    39    28    38  ar
    40    28    40  ar
    41    29    41   1
    42    42    29   1
    43    43    30   1
    44    44    31   1
    45    32    37   1
    46    37    33   1
    47    37    34   1
    48    35    36   1
    49     1    45   1
    50     2    46   1
    51     3    47   1
    52     4    48   1
    53     5    49   1
    54     6    50   1
    55     7    51   1
    56     8    52   1
    57     9    53   1
    58    10    54   1
    59    11    55   1
    60    12    56   1
    61    13    57   1
    62    14    58   1
    63    25    59   1
    64    25    60   1
    65    26    61   1
    66    29    62   1
    67    29    63   1
    68    30    64   1
    69    30    65   1
    70    30    66   1
    71    31    67   1
    72    31    68   1
    73    31    69   1
    74    32    70   1
    75    32    71   1
    76    33    72   1
    77    33    73   1
    78    34    74   1
    79    34    75   1
    80    35    76   1
    81    36    77   1
    82    37    78   1
@<TRIPOS>SUBSTRUCTURE
     1  O2N      1

