@<TRIPOS>MOLECULE
3zso_ligand_023
    78    82
SMALL
GAST_HUCK
****
This file was generated by PARSER (from files_GN.cpp)

@<TRIPOS>ATOM
      1 C1        -17.5935   48.7231   -7.1239 C.ar        1 O2N      -0.0630
      2 C2        -16.8566   49.1561   -6.0313 C.ar        1 O2N      -0.0640
      3 C3        -18.5507   47.7052   -6.9698 C.ar        1 O2N      -0.0483
      4 C4        -17.0628   48.5533   -4.7741 C.ar        1 O2N      -0.0493
      5 C5        -13.5772   45.2172   -3.4575 C.ar        1 O2N      -0.0712
      6 C6        -22.3593   44.7301   -9.0071 C.ar        1 O2N      -0.0648
      7 C7        -20.6014   43.0575   -9.0032 C.ar        1 O2N      -0.0648
      8 C8        -23.0138   45.7204   -6.0050 C.ar        1 O2N      -0.0648
      9 C9        -22.9181   43.4054   -5.2801 C.ar        1 O2N      -0.0648
     10 C10       -12.4354   44.4468   -3.1479 C.ar        1 O2N      -0.0449
     11 C11       -22.6122   44.4658  -10.3665 C.ar        1 O2N      -0.0392
     12 C12       -20.8335   42.8112  -10.3639 C.ar        1 O2N      -0.0392
     13 C13       -24.1909   45.9140   -5.2371 C.ar        1 O2N      -0.0392
     14 C14       -24.0790   43.5967   -4.5157 C.ar        1 O2N      -0.0392
     15 C15       -18.7905   47.0578   -5.7145 C.ar        1 O2N       0.0566
     16 C16       -14.0190   45.6227   -1.0765 C.ar        1 O2N       0.0376
     17 C17       -21.3743   44.0051   -8.2850 C.ar        1 O2N      -0.0192
     18 C18       -22.3638   44.4735   -6.0430 C.ar        1 O2N      -0.0192
     19 C19       -17.9921   47.4907   -4.5940 C.ar        1 O2N       0.0220
     20 C20       -14.3785   45.8145   -2.4463 C.ar        1 O2N      -0.0032
     21 C21       -12.0934   44.2909   -1.8036 C.ar        1 O2N       0.1200
     22 C22       -12.8710   44.8388   -0.7939 C.ar        1 O2N       0.1327
     23 C23       -21.8650   43.4886  -11.0477 C.ar        1 O2N       0.0839
     24 C24       -24.7292   44.8460   -4.5007 C.ar        1 O2N       0.0839
     25 C25       -16.3694   44.0013   -5.3516 C.2         1 O2N      -0.1125
     26 C26       -16.1938   43.9392   -4.0285 C.2         1 O2N      -0.0447
     27 C27       -19.7922   46.0641   -5.6777 C.2         1 O2N       0.2037
     28 C28       -14.7101   46.2014    0.0229 C.2         1 O2N       0.0515
     29 C29       -11.0504   44.0114    0.0596 C.3         1 O2N       0.1864
     30 C30       -23.2835   42.4836  -12.6187 C.3         1 O2N       0.0579
     31 C31       -27.0697   44.7513   -4.3611 C.3         1 O2N       0.0579
     32 C32       -18.0336   46.9370   -3.1871 C.3         1 O2N       0.0086
     33 C33       -15.5509   46.6395   -2.8954 C.3         1 O2N       0.0003
     34 C34       -17.0641   44.5736   -3.0452 C.3         1 O2N      -0.0011
     35 C35       -21.0982   44.2575   -6.8293 C.3         1 O2N       0.0982
     36 N36       -20.0902   45.2833   -6.7198 N.am        1 O2N      -0.2653
     37 N37       -16.9152   46.0374   -2.7149 N.4         1 O2N       0.2715
     38 O38       -14.9364   47.5357    0.0927 O.co2       1 O2N      -0.5668
     39 O39       -20.5260   45.9651   -4.6928 O.2         1 O2N      -0.3883
     40 O40       -14.9097   45.5207    1.1776 O.co2       1 O2N      -0.5668
     41 O41       -11.0273   43.6206   -1.3236 O.3         1 O2N      -0.2947
     42 O42       -12.3440   44.5378    0.4136 O.3         1 O2N      -0.2890
     43 O43       -22.0835   43.2372  -12.3736 O.3         1 O2N      -0.3255
     44 O44       -25.8240   45.0440   -3.7068 O.3         1 O2N      -0.3255
     45 H1        -17.4487   49.1660   -8.0424 H           1 O2N       0.0572
     46 H2        -16.1812   49.9180   -6.1199 H           1 O2N       0.0635
     47 H3        -19.0895   47.4684   -7.8008 H           1 O2N       0.0651
     48 H4        -16.4952   48.8977   -3.9986 H           1 O2N       0.0570
     49 H5        -13.8109   45.3275   -4.4469 H           1 O2N       0.0445
     50 H6        -22.9136   45.4546   -8.5574 H           1 O2N       0.0534
     51 H7        -19.8443   42.5458   -8.5347 H           1 O2N       0.0534
     52 H8        -22.6411   46.5222   -6.5243 H           1 O2N       0.0534
     53 H9        -22.4703   42.4892   -5.2789 H           1 O2N       0.0534
     54 H10       -11.8691   44.0308   -3.8854 H           1 O2N       0.0514
     55 H11       -23.3355   44.9916  -10.8624 H           1 O2N       0.0526
     56 H12       -20.2493   42.1358  -10.8662 H           1 O2N       0.0526
     57 H13       -24.6367   46.8307   -5.2215 H           1 O2N       0.0526
     58 H14       -24.4528   42.8231   -3.9642 H           1 O2N       0.0526
     59 H15       -15.7281   43.5512   -5.9648 H           1 O2N       0.0292
     60 H16       -17.1152   44.5119   -5.7492 H           1 O2N       0.0292
     61 H17       -15.4188   43.4062   -3.6963 H           1 O2N       0.0725
     62 H18       -10.2882   44.7776    0.2276 H           1 O2N       0.0973
     63 H19       -10.8133   43.1501    0.6844 H           1 O2N       0.0973
     64 H20       -23.3445   42.2800  -13.6867 H           1 O2N       0.0575
     65 H21       -24.1730   43.0498  -12.3275 H           1 O2N       0.0575
     66 H22       -23.2753   41.5259  -12.0900 H           1 O2N       0.0575
     67 H23       -27.8755   44.9182   -3.6450 H           1 O2N       0.0575
     68 H24       -27.1155   43.7086   -4.6879 H           1 O2N       0.0575
     69 H25       -27.2329   45.4103   -5.2182 H           1 O2N       0.0575
     70 H26       -18.9942   46.4808   -2.9620 H           1 O2N       0.0995
     71 H27       -18.0282   47.7815   -2.4904 H           1 O2N       0.0995
     72 H28       -15.4474   46.9135   -3.9493 H           1 O2N       0.0966
     73 H29       -15.5029   47.5755   -2.3367 H           1 O2N       0.0966
     74 H30       -16.9018   44.0483   -2.0989 H           1 O2N       0.0998
     75 H31       -18.0916   44.3465   -3.3269 H           1 O2N       0.0998
     76 H32       -20.6069   43.3719   -6.4158 H           1 O2N       0.0837
     77 H33       -19.4792   45.3380   -7.4700 H           1 O2N       0.1893
     78 H34       -17.0530   46.0660   -1.6995 H           1 O2N       0.2082
@<TRIPOS>BOND
     1     1     2  ar
     2     3     1  ar
     3     4     2  ar
     4    15     3  ar
     5    19     4  ar
     6     5    10  ar
     7    20     5  ar
     8     6    11  ar
     9    17     6  ar
    10     7    12  ar
    11    17     7  ar
    12     8    13  ar
    13    18     8  ar
    14     9    14  ar
    15    18     9  ar
    16    10    21  ar
    17    11    23  ar
    18    12    23  ar
    19    13    24  ar
    20    14    24  ar
    21    15    19  ar
    22    27    15   1
    23    20    16  ar
    24    16    22  ar
    25    16    28   1
    26    35    17   1
    27    35    18   1
    28    19    32   1
    29    33    20   1
    30    22    21  ar
    31    21    41   1
    32    22    42   1
    33    23    43   1
    34    24    44   1
    35    26    25   2
    36    34    26   1
    37    36    27  am
    38    27    39   2
    39    28    38  ar
    40    28    40  ar
    41    29    41   1
    42    42    29   1
    43    43    30   1
    44    44    31   1
    45    32    37   1
    46    37    33   1
    47    37    34   1
    48    35    36   1
    49     1    45   1
    50     2    46   1
    51     3    47   1
    52     4    48   1
    53     5    49   1
    54     6    50   1
    55     7    51   1
    56     8    52   1
    57     9    53   1
    58    10    54   1
    59    11    55   1
    60    12    56   1
    61    13    57   1
    62    14    58   1
    63    25    59   1
    64    25    60   1
    65    26    61   1
    66    29    62   1
    67    29    63   1
    68    30    64   1
    69    30    65   1
    70    30    66   1
    71    31    67   1
    72    31    68   1
    73    31    69   1
    74    32    70   1
    75    32    71   1
    76    33    72   1
    77    33    73   1
    78    34    74   1
    79    34    75   1
    80    35    76   1
    81    36    77   1
    82    37    78   1
@<TRIPOS>SUBSTRUCTURE
     1  O2N      1

