@<TRIPOS>MOLECULE
3zso_ligand_022
    78    82
SMALL
GAST_HUCK
****
This file was generated by PARSER (from files_GN.cpp)

@<TRIPOS>ATOM
      1 C1        -21.6768   45.4082   -1.3083 C.ar        1 O2N      -0.0630
      2 C2        -20.4696   45.0811   -0.6753 C.ar        1 O2N      -0.0640
      3 C3        -21.6796   45.7587   -2.6649 C.ar        1 O2N      -0.0483
      4 C4        -19.2670   45.1212   -1.4002 C.ar        1 O2N      -0.0493
      5 C5        -16.1770   47.3597   -5.6483 C.ar        1 O2N      -0.0712
      6 C6        -22.1792   46.5692   -8.8418 C.ar        1 O2N      -0.0648
      7 C7        -22.7521   45.2479   -6.8939 C.ar        1 O2N      -0.0648
      8 C8        -20.6276   49.7498   -7.1169 C.ar        1 O2N      -0.0648
      9 C9        -19.2857   47.7555   -7.4481 C.ar        1 O2N      -0.0648
     10 C10       -15.5205   47.7500   -6.8279 C.ar        1 O2N      -0.0449
     11 C11       -22.6224   45.5333   -9.6804 C.ar        1 O2N      -0.0392
     12 C12       -23.2044   44.2100   -7.7302 C.ar        1 O2N      -0.0392
     13 C13       -19.6004   50.5336   -7.6804 C.ar        1 O2N      -0.0392
     14 C14       -18.2703   48.5324   -8.0373 C.ar        1 O2N      -0.0392
     15 C15       -20.4796   45.7710   -3.4217 C.ar        1 O2N       0.0566
     16 C16       -16.1416   49.6650   -4.8229 C.ar        1 O2N       0.0376
     17 C17       -22.1692   46.4261   -7.4292 C.ar        1 O2N      -0.0192
     18 C18       -20.5023   48.3412   -7.0220 C.ar        1 O2N      -0.0192
     19 C19       -19.2421   45.4558   -2.7789 C.ar        1 O2N       0.0220
     20 C20       -16.4644   48.2840   -4.6049 C.ar        1 O2N      -0.0032
     21 C21       -15.1455   49.0883   -6.9796 C.ar        1 O2N       0.1200
     22 C22       -15.4562   50.0264   -6.0084 C.ar        1 O2N       0.1327
     23 C23       -23.1031   44.3314   -9.1286 C.ar        1 O2N       0.0839
     24 C24       -18.4361   49.9224   -8.1795 C.ar        1 O2N       0.0839
     25 C25       -14.5869   43.6120   -2.4591 C.2         1 O2N      -0.1125
     26 C26       -15.3754   44.6155   -2.0531 C.2         1 O2N      -0.0447
     27 C27       -20.5897   46.0498   -4.7763 C.2         1 O2N       0.2037
     28 C28       -16.4756   50.7008   -3.9117 C.2         1 O2N       0.0515
     29 C29       -14.5216   51.0245   -7.7120 C.3         1 O2N       0.1864
     30 C30       -22.4202   42.5658  -10.5038 C.3         1 O2N       0.0579
     31 C31       -17.1812   50.3520  -10.1193 C.3         1 O2N       0.0579
     32 C32       -17.9109   45.4261   -3.4671 C.3         1 O2N       0.0086
     33 C33       -17.0477   47.8034   -3.3001 C.3         1 O2N       0.0003
     34 C34       -15.5001   45.8826   -2.7621 C.3         1 O2N      -0.0011
     35 C35       -21.6432   47.5010   -6.5138 C.3         1 O2N       0.0982
     36 N36       -21.3429   47.0710   -5.1730 N.am        1 O2N      -0.2653
     37 N37       -16.9190   46.3727   -2.8393 N.4         1 O2N       0.2715
     38 O38       -17.7576   50.8846   -3.5193 O.co2       1 O2N      -0.5668
     39 O39       -20.1069   45.2562   -5.5693 O.2         1 O2N      -0.3883
     40 O40       -15.5824   51.6494   -3.5470 O.co2       1 O2N      -0.5668
     41 O41       -14.4956   49.6212   -8.0301 O.3         1 O2N      -0.2947
     42 O42       -15.0365   51.2545   -6.3885 O.3         1 O2N      -0.2890
     43 O43       -23.5156   43.3174   -9.9489 O.3         1 O2N      -0.3255
     44 O44       -17.4371   50.6686   -8.7421 O.3         1 O2N      -0.3255
     45 H1        -22.5542   45.3818   -0.7821 H           1 O2N       0.0572
     46 H2        -20.4685   44.8133    0.3109 H           1 O2N       0.0635
     47 H3        -22.5799   45.9766   -3.1042 H           1 O2N       0.0651
     48 H4        -18.4042   44.8750   -0.9095 H           1 O2N       0.0570
     49 H5        -16.4164   46.3744   -5.5583 H           1 O2N       0.0445
     50 H6        -21.8555   47.4321   -9.2821 H           1 O2N       0.0534
     51 H7        -22.8379   45.1265   -5.8823 H           1 O2N       0.0534
     52 H8        -21.4727   50.2206   -6.7880 H           1 O2N       0.0534
     53 H9        -19.1483   46.7451   -7.3969 H           1 O2N       0.0534
     54 H10       -15.3140   47.0707   -7.5648 H           1 O2N       0.0514
     55 H11       -22.5891   45.6509  -10.6955 H           1 O2N       0.0526
     56 H12       -23.5988   43.3601   -7.3195 H           1 O2N       0.0526
     57 H13       -19.7167   51.5475   -7.7495 H           1 O2N       0.0526
     58 H14       -17.4191   48.0789   -8.3773 H           1 O2N       0.0526
     59 H15       -14.5363   42.7647   -1.9412 H           1 O2N       0.0292
     60 H16       -14.0462   43.6916   -3.2890 H           1 O2N       0.0292
     61 H17       -15.8999   44.4913   -1.2154 H           1 O2N       0.0725
     62 H18       -15.1518   51.5450   -8.4363 H           1 O2N       0.0973
     63 H19       -13.5145   51.4385   -7.7854 H           1 O2N       0.0973
     64 H20       -22.8305   41.7986  -11.1601 H           1 O2N       0.0575
     65 H21       -21.8432   42.0688   -9.7200 H           1 O2N       0.0575
     66 H22       -21.7565   43.1997  -11.0979 H           1 O2N       0.0575
     67 H23       -16.3277   50.9459  -10.4479 H           1 O2N       0.0575
     68 H24       -18.0380   50.6072  -10.7478 H           1 O2N       0.0575
     69 H25       -16.9337   49.2954  -10.2529 H           1 O2N       0.0575
     70 H26       -18.0104   45.6427   -4.5272 H           1 O2N       0.0995
     71 H27       -17.5542   44.3949   -3.4199 H           1 O2N       0.0995
     72 H28       -18.0991   48.1055   -3.2810 H           1 O2N       0.0966
     73 H29       -16.5603   48.3675   -2.5024 H           1 O2N       0.0966
     74 H30       -15.0715   45.8089   -3.7630 H           1 O2N       0.0998
     75 H31       -14.8897   46.5998   -2.2057 H           1 O2N       0.0998
     76 H32       -22.5046   48.1627   -6.3820 H           1 O2N       0.0837
     77 H33       -21.7523   47.5949   -4.4649 H           1 O2N       0.1893
     78 H34       -17.1895   46.4213   -1.8561 H           1 O2N       0.2082
@<TRIPOS>BOND
     1     1     2  ar
     2     3     1  ar
     3     4     2  ar
     4    15     3  ar
     5    19     4  ar
     6     5    10  ar
     7    20     5  ar
     8     6    11  ar
     9    17     6  ar
    10     7    12  ar
    11    17     7  ar
    12     8    13  ar
    13    18     8  ar
    14     9    14  ar
    15    18     9  ar
    16    10    21  ar
    17    11    23  ar
    18    12    23  ar
    19    13    24  ar
    20    14    24  ar
    21    15    19  ar
    22    27    15   1
    23    20    16  ar
    24    16    22  ar
    25    16    28   1
    26    35    17   1
    27    35    18   1
    28    19    32   1
    29    33    20   1
    30    22    21  ar
    31    21    41   1
    32    22    42   1
    33    23    43   1
    34    24    44   1
    35    26    25   2
    36    34    26   1
    37    36    27  am
    38    27    39   2
    39    28    38  ar
    40    28    40  ar
    41    29    41   1
    42    42    29   1
    43    43    30   1
    44    44    31   1
    45    32    37   1
    46    37    33   1
    47    37    34   1
    48    35    36   1
    49     1    45   1
    50     2    46   1
    51     3    47   1
    52     4    48   1
    53     5    49   1
    54     6    50   1
    55     7    51   1
    56     8    52   1
    57     9    53   1
    58    10    54   1
    59    11    55   1
    60    12    56   1
    61    13    57   1
    62    14    58   1
    63    25    59   1
    64    25    60   1
    65    26    61   1
    66    29    62   1
    67    29    63   1
    68    30    64   1
    69    30    65   1
    70    30    66   1
    71    31    67   1
    72    31    68   1
    73    31    69   1
    74    32    70   1
    75    32    71   1
    76    33    72   1
    77    33    73   1
    78    34    74   1
    79    34    75   1
    80    35    76   1
    81    36    77   1
    82    37    78   1
@<TRIPOS>SUBSTRUCTURE
     1  O2N      1

