@<TRIPOS>MOLECULE
3zso_ligand_068
    78    82
SMALL
GAST_HUCK
****
This file was generated by PARSER (from files_GN.cpp)

@<TRIPOS>ATOM
      1 C1        -18.8078   50.6668   -2.1714 C.ar        1 O2N      -0.0630
      2 C2        -17.4200   50.6869   -2.3286 C.ar        1 O2N      -0.0640
      3 C3        -19.5292   49.5151   -2.5169 C.ar        1 O2N      -0.0483
      4 C4        -16.7598   49.5525   -2.8204 C.ar        1 O2N      -0.0493
      5 C5        -13.1904   45.9561   -2.8034 C.ar        1 O2N      -0.0712
      6 C6        -22.6818   44.6692   -5.0501 C.ar        1 O2N      -0.0648
      7 C7        -22.0459   46.9846   -5.4056 C.ar        1 O2N      -0.0648
      8 C8        -23.5621   45.2737   -1.3175 C.ar        1 O2N      -0.0648
      9 C9        -23.8909   47.3988   -2.4444 C.ar        1 O2N      -0.0648
     10 C10       -11.9225   45.3544   -2.9091 C.ar        1 O2N      -0.0449
     11 C11       -22.9540   44.5292   -6.4225 C.ar        1 O2N      -0.0392
     12 C12       -22.3319   46.8541   -6.7762 C.ar        1 O2N      -0.0392
     13 C13       -24.7456   45.4793   -0.5836 C.ar        1 O2N      -0.0392
     14 C14       -25.0807   47.6020   -1.7172 C.ar        1 O2N      -0.0392
     15 C15       -18.8990   48.3310   -3.0064 C.ar        1 O2N       0.0566
     16 C16       -13.1031   45.7728   -0.3651 C.ar        1 O2N       0.0376
     17 C17       -22.1960   45.8883   -4.5180 C.ar        1 O2N      -0.0192
     18 C18       -23.1192   46.2244   -2.2676 C.ar        1 O2N      -0.0192
     19 C19       -17.4641   48.3609   -3.1576 C.ar        1 O2N       0.0220
     20 C20       -13.8168   46.1557   -1.5439 C.ar        1 O2N      -0.0032
     21 C21       -11.2609   44.9527   -1.7403 C.ar        1 O2N       0.1200
     22 C22       -11.8355   45.1658   -0.4948 C.ar        1 O2N       0.1327
     23 C23       -22.7542   45.6152   -7.2981 C.ar        1 O2N       0.0839
     24 C24       -25.5247   46.6318   -0.7977 C.ar        1 O2N       0.0839
     25 C25       -16.5452   42.6773   -1.5943 C.2         1 O2N      -0.1125
     26 C26       -16.4546   44.0083   -1.4907 C.2         1 O2N      -0.0447
     27 C27       -19.7326   47.2371   -3.3365 C.2         1 O2N       0.2037
     28 C28       -13.5502   46.0113    0.9476 C.2         1 O2N       0.0515
     29 C29        -9.9887   44.0583   -0.2475 C.3         1 O2N       0.1864
     30 C30       -21.8102   45.2988   -9.4211 C.3         1 O2N       0.0579
     31 C31       -27.8163   46.1555   -0.6200 C.3         1 O2N       0.0579
     32 C32       -16.6153   47.1862   -3.5595 C.3         1 O2N       0.0086
     33 C33       -15.1515   46.8395   -1.5102 C.3         1 O2N       0.0003
     34 C34       -16.3091   44.8592   -2.6613 C.3         1 O2N      -0.0011
     35 C35       -21.8714   45.9922   -3.0561 C.3         1 O2N       0.0982
     36 N36       -20.8938   46.9889   -2.7136 N.am        1 O2N      -0.2653
     37 N37       -16.2925   46.3253   -2.3592 N.4         1 O2N       0.2715
     38 O38       -14.6295   45.3533    1.4241 O.co2       1 O2N      -0.5668
     39 O39       -19.4679   46.5079   -4.2864 O.2         1 O2N      -0.3883
     40 O40       -13.2100   47.1681    1.5613 O.co2       1 O2N      -0.5668
     41 O41       -10.0477   44.3812   -1.6506 O.3         1 O2N      -0.2947
     42 O42       -11.0172   44.7438    0.4923 O.3         1 O2N      -0.2890
     43 O43       -23.0051   45.4699   -8.6363 O.3         1 O2N      -0.3255
     44 O44       -26.6721   46.8439   -0.0838 O.3         1 O2N      -0.3255
     45 H1        -19.2939   51.4902   -1.8106 H           1 O2N       0.0572
     46 H2        -16.8886   51.5251   -2.0777 H           1 O2N       0.0635
     47 H3        -20.5433   49.5765   -2.4088 H           1 O2N       0.0651
     48 H4        -15.7380   49.5948   -2.8990 H           1 O2N       0.0570
     49 H5        -13.6499   46.2495   -3.6640 H           1 O2N       0.0445
     50 H6        -22.8295   43.8616   -4.4359 H           1 O2N       0.0534
     51 H7        -21.7273   47.8922   -5.0578 H           1 O2N       0.0534
     52 H8        -23.0268   44.4156   -1.1519 H           1 O2N       0.0534
     53 H9        -23.5933   48.1190   -3.1100 H           1 O2N       0.0534
     54 H10       -11.4886   45.2091   -3.8291 H           1 O2N       0.0514
     55 H11       -23.2842   43.6337   -6.7867 H           1 O2N       0.0526
     56 H12       -22.2152   47.6569   -7.3983 H           1 O2N       0.0526
     57 H13       -25.0450   44.7783    0.0991 H           1 O2N       0.0526
     58 H14       -25.6266   48.4546   -1.8662 H           1 O2N       0.0526
     59 H15       -16.6361   42.1142   -0.7829 H           1 O2N       0.0292
     60 H16       -16.5246   42.2410   -2.4868 H           1 O2N       0.0292
     61 H17       -16.4914   44.4172   -0.5852 H           1 O2N       0.0725
     62 H18        -9.0114   44.3388    0.1492 H           1 O2N       0.0973
     63 H19       -10.1171   42.9785   -0.1225 H           1 O2N       0.0973
     64 H20       -22.1042   45.1459  -10.4593 H           1 O2N       0.0575
     65 H21       -21.2388   44.4236   -9.0978 H           1 O2N       0.0575
     66 H22       -21.1732   46.1859   -9.3750 H           1 O2N       0.0575
     67 H23       -28.6882   46.4287   -0.0237 H           1 O2N       0.0575
     68 H24       -27.6902   45.0706   -0.5568 H           1 O2N       0.0575
     69 H25       -28.0091   46.4413   -1.6569 H           1 O2N       0.0575
     70 H26       -15.6819   47.5168   -4.0277 H           1 O2N       0.0995
     71 H27       -17.1023   46.6471   -4.3708 H           1 O2N       0.0995
     72 H28       -14.9769   47.9040   -1.7163 H           1 O2N       0.0966
     73 H29       -15.5320   46.8191   -0.4919 H           1 O2N       0.0966
     74 H30       -17.1703   44.6314   -3.3044 H           1 O2N       0.0998
     75 H31       -15.3996   44.5878   -3.2074 H           1 O2N       0.0998
     76 H32       -21.4206   45.0426   -2.7499 H           1 O2N       0.0837
     77 H33       -21.1051   47.5387   -1.9465 H           1 O2N       0.1893
     78 H34       -17.0873   46.4464   -1.7365 H           1 O2N       0.2082
@<TRIPOS>BOND
     1     1     2  ar
     2     3     1  ar
     3     4     2  ar
     4    15     3  ar
     5    19     4  ar
     6     5    10  ar
     7    20     5  ar
     8     6    11  ar
     9    17     6  ar
    10     7    12  ar
    11    17     7  ar
    12     8    13  ar
    13    18     8  ar
    14     9    14  ar
    15    18     9  ar
    16    10    21  ar
    17    11    23  ar
    18    12    23  ar
    19    13    24  ar
    20    14    24  ar
    21    15    19  ar
    22    27    15   1
    23    20    16  ar
    24    16    22  ar
    25    16    28   1
    26    35    17   1
    27    35    18   1
    28    19    32   1
    29    33    20   1
    30    22    21  ar
    31    21    41   1
    32    22    42   1
    33    23    43   1
    34    24    44   1
    35    26    25   2
    36    34    26   1
    37    36    27  am
    38    27    39   2
    39    28    38  ar
    40    28    40  ar
    41    29    41   1
    42    42    29   1
    43    43    30   1
    44    44    31   1
    45    32    37   1
    46    37    33   1
    47    37    34   1
    48    35    36   1
    49     1    45   1
    50     2    46   1
    51     3    47   1
    52     4    48   1
    53     5    49   1
    54     6    50   1
    55     7    51   1
    56     8    52   1
    57     9    53   1
    58    10    54   1
    59    11    55   1
    60    12    56   1
    61    13    57   1
    62    14    58   1
    63    25    59   1
    64    25    60   1
    65    26    61   1
    66    29    62   1
    67    29    63   1
    68    30    64   1
    69    30    65   1
    70    30    66   1
    71    31    67   1
    72    31    68   1
    73    31    69   1
    74    32    70   1
    75    32    71   1
    76    33    72   1
    77    33    73   1
    78    34    74   1
    79    34    75   1
    80    35    76   1
    81    36    77   1
    82    37    78   1
@<TRIPOS>SUBSTRUCTURE
     1  O2N      1

