@<TRIPOS>MOLECULE
3zso_ligand_085
    78    82
SMALL
GAST_HUCK
****
This file was generated by PARSER (from files_GN.cpp)

@<TRIPOS>ATOM
      1 C1        -13.3426   51.7882    2.0116 C.ar        1 O2N      -0.0630
      2 C2        -13.5828   50.4764    2.4461 C.ar        1 O2N      -0.0640
      3 C3        -13.6590   52.1564    0.6935 C.ar        1 O2N      -0.0483
      4 C4        -14.0834   49.5202    1.5463 C.ar        1 O2N      -0.0493
      5 C5        -10.7384   45.9744   -1.6832 C.ar        1 O2N      -0.0712
      6 C6        -18.8056   51.0144   -2.3432 C.ar        1 O2N      -0.0648
      7 C7        -18.6067   53.3541   -2.9361 C.ar        1 O2N      -0.0648
      8 C8        -16.5264   49.6955   -4.2709 C.ar        1 O2N      -0.0648
      9 C9        -15.6482   51.6496   -5.4025 C.ar        1 O2N      -0.0648
     10 C10        -9.9774   44.7979   -1.5428 C.ar        1 O2N      -0.0449
     11 C11       -20.1835   51.1838   -2.1197 C.ar        1 O2N      -0.0392
     12 C12       -19.9833   53.5314   -2.6955 C.ar        1 O2N      -0.0392
     13 C13       -16.2666   48.9118   -5.4126 C.ar        1 O2N      -0.0392
     14 C14       -15.3964   50.8725   -6.5492 C.ar        1 O2N      -0.0392
     15 C15       -14.1898   51.2118   -0.2196 C.ar        1 O2N       0.0566
     16 C16       -11.8477   45.5449    0.4536 C.ar        1 O2N       0.0376
     17 C17       -17.9884   52.0867   -2.7783 C.ar        1 O2N      -0.0192
     18 C18       -16.2296   51.0815   -4.2422 C.ar        1 O2N      -0.0192
     19 C19       -14.3389   49.8499    0.1938 C.ar        1 O2N       0.0220
     20 C20       -11.6874   46.3674   -0.7010 C.ar        1 O2N      -0.0032
     21 C21       -10.1745   43.9972   -0.4102 C.ar        1 O2N       0.1200
     22 C22       -11.0897   44.3582    0.5660 C.ar        1 O2N       0.1327
     23 C23       -20.7857   52.4406   -2.3130 C.ar        1 O2N       0.0839
     24 C24       -15.7162   49.5013   -6.5694 C.ar        1 O2N       0.0839
     25 C25       -16.2571   44.5836   -1.4927 C.2         1 O2N      -0.1125
     26 C26       -15.5452   45.5488   -0.8905 C.2         1 O2N      -0.0447
     27 C27       -14.6223   51.6804   -1.4545 C.2         1 O2N       0.2037
     28 C28       -12.7346   45.8561    1.4954 C.2         1 O2N       0.0515
     29 C29       -10.0567   42.5597    1.1943 C.3         1 O2N       0.1864
     30 C30       -22.9591   52.3184   -3.1899 C.3         1 O2N       0.0579
     31 C31       -16.6664   48.4266   -8.4235 C.3         1 O2N       0.0579
     32 C32       -14.7366   48.7523   -0.7412 C.3         1 O2N       0.0086
     33 C33       -12.4969   47.6095   -0.9302 C.3         1 O2N       0.0003
     34 C34       -14.6325   46.4164   -1.6163 C.3         1 O2N      -0.0011
     35 C35       -16.5170   51.9222   -3.0273 C.3         1 O2N       0.0982
     36 N36       -15.8737   51.4415   -1.8365 N.am        1 O2N      -0.2653
     37 N37       -13.9794   47.4484   -0.7209 N.4         1 O2N       0.2715
     38 O38       -13.8972   45.1715    1.6231 O.co2       1 O2N      -0.5668
     39 O39       -13.8741   52.3858   -2.1239 O.2         1 O2N      -0.3883
     40 O40       -12.3940   46.7847    2.4141 O.co2       1 O2N      -0.5668
     41 O41        -9.5356   42.8496   -0.1143 O.3         1 O2N      -0.2947
     42 O42       -11.1065   43.4647    1.5759 O.3         1 O2N      -0.2890
     43 O43       -22.1190   52.6242   -2.0643 O.3         1 O2N      -0.3255
     44 O44       -15.4757   48.7401   -7.6817 O.3         1 O2N      -0.3255
     45 H1        -12.9759   52.4845    2.6603 H           1 O2N       0.0572
     46 H2        -13.3811   50.2155    3.4144 H           1 O2N       0.0635
     47 H3        -13.5274   53.1363    0.4199 H           1 O2N       0.0651
     48 H4        -14.2548   48.5707    1.8837 H           1 O2N       0.0570
     49 H5        -10.5934   46.5434   -2.5251 H           1 O2N       0.0445
     50 H6        -18.4006   50.0911   -2.1745 H           1 O2N       0.0534
     51 H7        -18.0542   54.1685   -3.2181 H           1 O2N       0.0534
     52 H8        -16.9300   49.2351   -3.4574 H           1 O2N       0.0534
     53 H9        -15.4122   52.6455   -5.4261 H           1 O2N       0.0534
     54 H10        -9.2901   44.5314   -2.2514 H           1 O2N       0.0514
     55 H11       -20.7500   50.3872   -1.8146 H           1 O2N       0.0526
     56 H12       -20.4004   54.4550   -2.8058 H           1 O2N       0.0526
     57 H13       -16.4844   47.9125   -5.4007 H           1 O2N       0.0526
     58 H14       -14.9812   51.3085   -7.3774 H           1 O2N       0.0526
     59 H15       -16.8394   43.9886   -0.9511 H           1 O2N       0.0292
     60 H16       -16.1933   44.4366   -2.4741 H           1 O2N       0.0292
     61 H17       -15.6109   45.6303    0.1003 H           1 O2N       0.0725
     62 H18        -9.2434   42.6296    1.9216 H           1 O2N       0.0973
     63 H19       -10.4416   41.5385    1.2057 H           1 O2N       0.0973
     64 H20       -23.9981   52.4800   -2.8941 H           1 O2N       0.0575
     65 H21       -22.8539   51.2721   -3.4914 H           1 O2N       0.0575
     66 H22       -22.7430   52.9676   -4.0403 H           1 O2N       0.0575
     67 H23       -16.3917   47.7906   -9.2638 H           1 O2N       0.0575
     68 H24       -17.1419   49.3268   -8.8157 H           1 O2N       0.0575
     69 H25       -17.3894   47.8727   -7.8063 H           1 O2N       0.0575
     70 H26       -14.6848   49.1275   -1.7601 H           1 O2N       0.0995
     71 H27       -15.7841   48.5437   -0.5243 H           1 O2N       0.0995
     72 H28       -12.3285   48.0096   -1.9333 H           1 O2N       0.0966
     73 H29       -12.1152   48.3484   -0.2224 H           1 O2N       0.0966
     74 H30       -15.1748   46.9020   -2.4391 H           1 O2N       0.0998
     75 H31       -13.8856   45.7626   -2.0800 H           1 O2N       0.0998
     76 H32       -16.0947   52.9183   -3.2131 H           1 O2N       0.0837
     77 H33       -16.4263   50.9355   -1.2141 H           1 O2N       0.1893
     78 H34       -14.0756   47.0881    0.2289 H           1 O2N       0.2082
@<TRIPOS>BOND
     1     1     2  ar
     2     3     1  ar
     3     4     2  ar
     4    15     3  ar
     5    19     4  ar
     6     5    10  ar
     7    20     5  ar
     8     6    11  ar
     9    17     6  ar
    10     7    12  ar
    11    17     7  ar
    12     8    13  ar
    13    18     8  ar
    14     9    14  ar
    15    18     9  ar
    16    10    21  ar
    17    11    23  ar
    18    12    23  ar
    19    13    24  ar
    20    14    24  ar
    21    15    19  ar
    22    27    15   1
    23    20    16  ar
    24    16    22  ar
    25    16    28   1
    26    35    17   1
    27    35    18   1
    28    19    32   1
    29    33    20   1
    30    22    21  ar
    31    21    41   1
    32    22    42   1
    33    23    43   1
    34    24    44   1
    35    26    25   2
    36    34    26   1
    37    36    27  am
    38    27    39   2
    39    28    38  ar
    40    28    40  ar
    41    29    41   1
    42    42    29   1
    43    43    30   1
    44    44    31   1
    45    32    37   1
    46    37    33   1
    47    37    34   1
    48    35    36   1
    49     1    45   1
    50     2    46   1
    51     3    47   1
    52     4    48   1
    53     5    49   1
    54     6    50   1
    55     7    51   1
    56     8    52   1
    57     9    53   1
    58    10    54   1
    59    11    55   1
    60    12    56   1
    61    13    57   1
    62    14    58   1
    63    25    59   1
    64    25    60   1
    65    26    61   1
    66    29    62   1
    67    29    63   1
    68    30    64   1
    69    30    65   1
    70    30    66   1
    71    31    67   1
    72    31    68   1
    73    31    69   1
    74    32    70   1
    75    32    71   1
    76    33    72   1
    77    33    73   1
    78    34    74   1
    79    34    75   1
    80    35    76   1
    81    36    77   1
    82    37    78   1
@<TRIPOS>SUBSTRUCTURE
     1  O2N      1

