@<TRIPOS>MOLECULE
3zso_ligand_049
    78    82
SMALL
GAST_HUCK
****
This file was generated by PARSER (from files_GN.cpp)

@<TRIPOS>ATOM
      1 C1         -6.2406   47.0727   -1.5439 C.ar        1 O2N      -0.0630
      2 C2         -6.3161   48.3782   -1.0399 C.ar        1 O2N      -0.0640
      3 C3         -7.2273   46.1290   -1.2083 C.ar        1 O2N      -0.0483
      4 C4         -7.3756   48.7393   -0.1932 C.ar        1 O2N      -0.0493
      5 C5        -12.2754   51.8845    0.7000 C.ar        1 O2N      -0.0712
      6 C6        -10.1734   42.0680   -2.0638 C.ar        1 O2N      -0.0648
      7 C7        -10.1441   42.0108    0.3667 C.ar        1 O2N      -0.0648
      8 C8        -13.3006   43.2278   -1.7250 C.ar        1 O2N      -0.0648
      9 C9        -12.4559   45.3232   -2.6018 C.ar        1 O2N      -0.0648
     10 C10       -13.2013   52.7638    0.1116 C.ar        1 O2N      -0.0449
     11 C11        -9.6018   40.7842   -2.0968 C.ar        1 O2N      -0.0392
     12 C12        -9.5628   40.7282    0.3280 C.ar        1 O2N      -0.0392
     13 C13       -14.4690   43.3705   -2.4962 C.ar        1 O2N      -0.0392
     14 C14       -13.6186   45.4615   -3.3827 C.ar        1 O2N      -0.0392
     15 C15        -8.2937   46.4711   -0.3400 C.ar        1 O2N       0.0566
     16 C16       -13.8906   50.0366    0.5668 C.ar        1 O2N       0.0376
     17 C17       -10.4736   42.6958   -0.8308 C.ar        1 O2N      -0.0192
     18 C18       -12.2701   44.2040   -1.7461 C.ar        1 O2N      -0.0192
     19 C19        -8.3675   47.8019    0.1878 C.ar        1 O2N       0.0220
     20 C20       -12.5926   50.5195    0.9382 C.ar        1 O2N      -0.0032
     21 C21       -14.4530   52.2665   -0.2687 C.ar        1 O2N       0.1200
     22 C22       -14.7869   50.9407   -0.0503 C.ar        1 O2N       0.1327
     23 C23        -9.2863   40.1048   -0.9056 C.ar        1 O2N       0.0839
     24 C24       -14.6277   44.4813   -3.3459 C.ar        1 O2N       0.0839
     25 C25       -10.4317   49.9171   -2.6844 C.2         1 O2N      -0.1125
     26 C26       -10.3729   48.7727   -1.9907 C.2         1 O2N      -0.0447
     27 C27        -9.2253   45.4831   -0.0448 C.2         1 O2N       0.2037
     28 C28       -14.3147   48.6884    0.6977 C.2         1 O2N       0.0515
     29 C29       -16.3441   51.8798   -1.2282 C.3         1 O2N       0.1864
     30 C30        -7.5819   38.5832   -0.2651 C.3         1 O2N       0.0579
     31 C31       -15.8951   43.8221   -5.2228 C.3         1 O2N       0.0579
     32 C32        -9.4623   48.2954    1.0806 C.3         1 O2N       0.0086
     33 C33       -11.4971   49.6432    1.4621 C.3         1 O2N       0.0003
     34 C34       -11.1431   48.5537   -0.7805 C.3         1 O2N      -0.0011
     35 C35       -11.1032   44.0565   -0.8028 C.3         1 O2N       0.0982
     36 N36       -10.0412   45.0173   -0.9878 N.am        1 O2N      -0.2653
     37 N37       -10.4986   49.1813    0.4324 N.4         1 O2N       0.2715
     38 O38       -14.0398   47.9386    1.7866 O.co2       1 O2N      -0.5668
     39 O39        -9.2715   45.0573    1.1017 O.2         1 O2N      -0.3883
     40 O40       -15.0984   48.1141   -0.2429 O.co2       1 O2N      -0.5668
     41 O41       -15.4592   52.9477   -0.8462 O.3         1 O2N      -0.2947
     42 O42       -16.0436   50.6895   -0.4851 O.3         1 O2N      -0.2890
     43 O43        -8.7927   38.8315   -0.9981 O.3         1 O2N      -0.3255
     44 O44       -15.7788   44.6660   -4.0640 O.3         1 O2N      -0.3255
     45 H1         -5.4603   46.8071   -2.1495 H           1 O2N       0.0572
     46 H2         -5.5998   49.0658   -1.2855 H           1 O2N       0.0635
     47 H3         -7.1445   45.1808   -1.5915 H           1 O2N       0.0651
     48 H4         -7.4144   49.7019    0.1530 H           1 O2N       0.0570
     49 H5        -11.3566   52.2537    0.9506 H           1 O2N       0.0445
     50 H6        -10.3849   42.5404   -2.9458 H           1 O2N       0.0534
     51 H7        -10.3234   42.4430    1.2767 H           1 O2N       0.0534
     52 H8        -13.2124   42.4051   -1.1249 H           1 O2N       0.0534
     53 H9        -11.7577   46.0653   -2.6524 H           1 O2N       0.0534
     54 H10       -12.9691   53.7463   -0.0453 H           1 O2N       0.0514
     55 H11        -9.4126   40.3386   -2.9981 H           1 O2N       0.0526
     56 H12        -9.3381   40.2496    1.2037 H           1 O2N       0.0526
     57 H13       -15.2112   42.6715   -2.4263 H           1 O2N       0.0526
     58 H14       -13.7426   46.2904   -3.9655 H           1 O2N       0.0526
     59 H15        -9.8918   50.0318   -3.5053 H           1 O2N       0.0292
     60 H16       -11.0202   50.6627   -2.3973 H           1 O2N       0.0292
     61 H17        -9.7966   48.0386   -2.3344 H           1 O2N       0.0725
     62 H18       -16.2236   51.6745   -2.2972 H           1 O2N       0.0973
     63 H19       -17.3800   52.1741   -1.0458 H           1 O2N       0.0973
     64 H20        -7.2012   37.6004   -0.5507 H           1 O2N       0.0575
     65 H21        -7.7801   38.5755    0.8086 H           1 O2N       0.0575
     66 H22        -6.8162   39.3291   -0.4918 H           1 O2N       0.0575
     67 H23       -16.7877   44.1205   -5.7746 H           1 O2N       0.0575
     68 H24       -16.0108   42.7752   -4.9326 H           1 O2N       0.0575
     69 H25       -15.0326   43.9254   -5.8880 H           1 O2N       0.0575
     70 H26        -8.9883   48.8432    1.8986 H           1 O2N       0.0995
     71 H27        -9.9621   47.4560    1.5577 H           1 O2N       0.0995
     72 H28       -11.8996   48.7657    1.9613 H           1 O2N       0.0966
     73 H29       -10.9815   50.2130    2.2424 H           1 O2N       0.0966
     74 H30       -11.2945   47.4844   -0.6157 H           1 O2N       0.0998
     75 H31       -12.1339   48.9577   -0.9887 H           1 O2N       0.0998
     76 H32       -11.5480   44.2317    0.1831 H           1 O2N       0.0837
     77 H33        -9.9175   45.3676   -1.8833 H           1 O2N       0.1893
     78 H34       -10.0122   50.0257    0.1134 H           1 O2N       0.2082
@<TRIPOS>BOND
     1     1     2  ar
     2     3     1  ar
     3     4     2  ar
     4    15     3  ar
     5    19     4  ar
     6     5    10  ar
     7    20     5  ar
     8     6    11  ar
     9    17     6  ar
    10     7    12  ar
    11    17     7  ar
    12     8    13  ar
    13    18     8  ar
    14     9    14  ar
    15    18     9  ar
    16    10    21  ar
    17    11    23  ar
    18    12    23  ar
    19    13    24  ar
    20    14    24  ar
    21    15    19  ar
    22    27    15   1
    23    20    16  ar
    24    16    22  ar
    25    16    28   1
    26    35    17   1
    27    35    18   1
    28    19    32   1
    29    33    20   1
    30    22    21  ar
    31    21    41   1
    32    22    42   1
    33    23    43   1
    34    24    44   1
    35    26    25   2
    36    34    26   1
    37    36    27  am
    38    27    39   2
    39    28    38  ar
    40    28    40  ar
    41    29    41   1
    42    42    29   1
    43    43    30   1
    44    44    31   1
    45    32    37   1
    46    37    33   1
    47    37    34   1
    48    35    36   1
    49     1    45   1
    50     2    46   1
    51     3    47   1
    52     4    48   1
    53     5    49   1
    54     6    50   1
    55     7    51   1
    56     8    52   1
    57     9    53   1
    58    10    54   1
    59    11    55   1
    60    12    56   1
    61    13    57   1
    62    14    58   1
    63    25    59   1
    64    25    60   1
    65    26    61   1
    66    29    62   1
    67    29    63   1
    68    30    64   1
    69    30    65   1
    70    30    66   1
    71    31    67   1
    72    31    68   1
    73    31    69   1
    74    32    70   1
    75    32    71   1
    76    33    72   1
    77    33    73   1
    78    34    74   1
    79    34    75   1
    80    35    76   1
    81    36    77   1
    82    37    78   1
@<TRIPOS>SUBSTRUCTURE
     1  O2N      1

