@<TRIPOS>MOLECULE
3zso_ligand_024
    78    82
SMALL
GAST_HUCK
****
This file was generated by PARSER (from files_GN.cpp)

@<TRIPOS>ATOM
      1 C1        -19.5844   45.4124   -5.9339 C.ar        1 O2N      -0.0630
      2 C2        -18.3791   44.7081   -6.0009 C.ar        1 O2N      -0.0640
      3 C3        -19.7027   46.5209   -5.0829 C.ar        1 O2N      -0.0483
      4 C4        -17.2876   45.1053   -5.2129 C.ar        1 O2N      -0.0493
      5 C5        -12.9240   45.8758   -2.5949 C.ar        1 O2N      -0.0712
      6 C6        -16.3213   50.5673   -2.5210 C.ar        1 O2N      -0.0648
      7 C7        -18.0269   51.7954   -1.3180 C.ar        1 O2N      -0.0648
      8 C8        -20.9348   51.2143   -4.3750 C.ar        1 O2N      -0.0648
      9 C9        -20.7823   50.4459   -2.0790 C.ar        1 O2N      -0.0648
     10 C10       -11.6719   45.2423   -2.6805 C.ar        1 O2N      -0.0449
     11 C11       -15.3617   50.9636   -1.5673 C.ar        1 O2N      -0.0392
     12 C12       -17.0678   52.2032   -0.3747 C.ar        1 O2N      -0.0392
     13 C13       -22.3282   51.3714   -4.2331 C.ar        1 O2N      -0.0392
     14 C14       -22.1736   50.6187   -1.9261 C.ar        1 O2N      -0.0392
     15 C15       -18.6130   46.9461   -4.2766 C.ar        1 O2N       0.0566
     16 C16       -12.8966   45.6865   -0.1509 C.ar        1 O2N       0.0376
     17 C17       -17.6815   50.9562   -2.4050 C.ar        1 O2N      -0.0192
     18 C18       -20.1307   50.7716   -3.2931 C.ar        1 O2N      -0.0192
     19 C19       -17.3841   46.2151   -4.3276 C.ar        1 O2N       0.0220
     20 C20       -13.5849   46.0669   -1.3479 C.ar        1 O2N      -0.0032
     21 C21       -11.0385   44.8243   -1.5007 C.ar        1 O2N       0.1200
     22 C22       -11.6255   45.0600   -0.2624 C.ar        1 O2N       0.1327
     23 C23       -15.7319   51.7702   -0.4759 C.ar        1 O2N       0.0839
     24 C24       -22.9478   51.1041   -3.0018 C.ar        1 O2N       0.0839
     25 C25       -18.5291   44.6732   -1.2945 C.2         1 O2N      -0.1125
     26 C26       -17.2670   44.2531   -1.1327 C.2         1 O2N      -0.0447
     27 C27       -18.7924   48.0756   -3.5156 C.2         1 O2N       0.2037
     28 C28       -13.3784   45.9406    1.1536 C.2         1 O2N       0.0515
     29 C29        -9.6785   44.1442    0.0242 C.3         1 O2N       0.1864
     30 C30       -13.9674   51.2561    1.0205 C.3         1 O2N       0.0579
     31 C31       -24.6871   52.5972   -2.4841 C.3         1 O2N       0.0579
     32 C32       -16.1550   46.6296   -3.5825 C.3         1 O2N       0.0086
     33 C33       -14.9375   46.7273   -1.3516 C.3         1 O2N       0.0003
     34 C34       -16.1890   44.6238   -2.0345 C.3         1 O2N      -0.0011
     35 C35       -18.6483   50.5683   -3.4915 C.3         1 O2N       0.0982
     36 N36       -18.4580   49.2585   -4.0333 N.am        1 O2N      -0.2653
     37 N37       -16.0627   46.1271   -2.1645 N.4         1 O2N       0.2715
     38 O38       -12.7599   46.8433    1.9522 O.co2       1 O2N      -0.5668
     39 O39       -19.3940   47.9861   -2.4443 O.2         1 O2N      -0.3883
     40 O40       -14.4047   45.2184    1.6730 O.co2       1 O2N      -0.5668
     41 O41        -9.8499   44.1964   -1.4026 O.3         1 O2N      -0.2947
     42 O42       -10.8474   44.5901    0.7395 O.3         1 O2N      -0.2890
     43 O43       -14.8198   52.2467    0.4247 O.3         1 O2N      -0.3255
     44 O44       -24.3022   51.2604   -2.8575 O.3         1 O2N      -0.3255
     45 H1        -20.3779   45.1261   -6.5101 H           1 O2N       0.0572
     46 H2        -18.2969   43.8907   -6.6133 H           1 O2N       0.0635
     47 H3        -20.5937   47.0255   -5.0578 H           1 O2N       0.0651
     48 H4        -16.4219   44.5687   -5.2838 H           1 O2N       0.0570
     49 H5        -13.3521   46.2102   -3.4614 H           1 O2N       0.0445
     50 H6        -16.0066   50.0098   -3.3150 H           1 O2N       0.0534
     51 H7        -18.9753   52.1619   -1.2176 H           1 O2N       0.0534
     52 H8        -20.5167   51.4096   -5.2857 H           1 O2N       0.0534
     53 H9        -20.2505   50.0878   -1.2846 H           1 O2N       0.0534
     54 H10       -11.2196   45.1070   -3.5883 H           1 O2N       0.0514
     55 H11       -14.3891   50.6736   -1.6864 H           1 O2N       0.0526
     56 H12       -17.3385   52.8361    0.3855 H           1 O2N       0.0526
     57 H13       -22.8842   51.6856   -5.0314 H           1 O2N       0.0526
     58 H14       -22.6185   50.4000   -1.0348 H           1 O2N       0.0526
     59 H15       -19.2446   44.3710   -0.6774 H           1 O2N       0.0292
     60 H16       -18.7770   45.2806   -2.0423 H           1 O2N       0.0292
     61 H17       -17.0720   43.6203   -0.3855 H           1 O2N       0.0725
     62 H18        -8.8325   44.7731    0.3021 H           1 O2N       0.0973
     63 H19        -9.4485   43.1218    0.3192 H           1 O2N       0.0973
     64 H20       -13.4736   51.7199    1.8795 H           1 O2N       0.0575
     65 H21       -13.1953   50.9354    0.3195 H           1 O2N       0.0575
     66 H22       -14.5254   50.3840    1.3740 H           1 O2N       0.0575
     67 H23       -25.7702   52.6157   -2.3558 H           1 O2N       0.0575
     68 H24       -24.4235   53.3175   -3.2626 H           1 O2N       0.0575
     69 H25       -24.2263   52.8934   -1.5385 H           1 O2N       0.0575
     70 H26       -16.1355   47.7270   -3.5899 H           1 O2N       0.0995
     71 H27       -15.2548   46.2991   -4.1217 H           1 O2N       0.0995
     72 H28       -14.7867   47.7671   -1.6511 H           1 O2N       0.0966
     73 H29       -15.3228   46.8060   -0.3343 H           1 O2N       0.0966
     74 H30       -16.3993   44.1428   -2.9961 H           1 O2N       0.0998
     75 H31       -15.2618   44.1643   -1.6835 H           1 O2N       0.0998
     76 H32       -18.3532   51.2306   -4.3125 H           1 O2N       0.0837
     77 H33       -18.0256   49.2224   -4.9024 H           1 O2N       0.1893
     78 H34       -16.8849   46.4914   -1.6814 H           1 O2N       0.2082
@<TRIPOS>BOND
     1     1     2  ar
     2     3     1  ar
     3     4     2  ar
     4    15     3  ar
     5    19     4  ar
     6     5    10  ar
     7    20     5  ar
     8     6    11  ar
     9    17     6  ar
    10     7    12  ar
    11    17     7  ar
    12     8    13  ar
    13    18     8  ar
    14     9    14  ar
    15    18     9  ar
    16    10    21  ar
    17    11    23  ar
    18    12    23  ar
    19    13    24  ar
    20    14    24  ar
    21    15    19  ar
    22    27    15   1
    23    20    16  ar
    24    16    22  ar
    25    16    28   1
    26    35    17   1
    27    35    18   1
    28    19    32   1
    29    33    20   1
    30    22    21  ar
    31    21    41   1
    32    22    42   1
    33    23    43   1
    34    24    44   1
    35    26    25   2
    36    34    26   1
    37    36    27  am
    38    27    39   2
    39    28    38  ar
    40    28    40  ar
    41    29    41   1
    42    42    29   1
    43    43    30   1
    44    44    31   1
    45    32    37   1
    46    37    33   1
    47    37    34   1
    48    35    36   1
    49     1    45   1
    50     2    46   1
    51     3    47   1
    52     4    48   1
    53     5    49   1
    54     6    50   1
    55     7    51   1
    56     8    52   1
    57     9    53   1
    58    10    54   1
    59    11    55   1
    60    12    56   1
    61    13    57   1
    62    14    58   1
    63    25    59   1
    64    25    60   1
    65    26    61   1
    66    29    62   1
    67    29    63   1
    68    30    64   1
    69    30    65   1
    70    30    66   1
    71    31    67   1
    72    31    68   1
    73    31    69   1
    74    32    70   1
    75    32    71   1
    76    33    72   1
    77    33    73   1
    78    34    74   1
    79    34    75   1
    80    35    76   1
    81    36    77   1
    82    37    78   1
@<TRIPOS>SUBSTRUCTURE
     1  O2N      1

