@<TRIPOS>MOLECULE
3zso_ligand_008
    78    82
SMALL
GAST_HUCK
****
This file was generated by PARSER (from files_GN.cpp)

@<TRIPOS>ATOM
      1 C1        -22.7760   45.9353   -5.7856 C.ar        1 O2N      -0.0630
      2 C2        -23.8850   45.9312   -4.9369 C.ar        1 O2N      -0.0640
      3 C3        -21.4893   46.0707   -5.2541 C.ar        1 O2N      -0.0483
      4 C4        -23.6936   46.0426   -3.5524 C.ar        1 O2N      -0.0493
      5 C5        -23.6731   47.4141    1.6935 C.ar        1 O2N      -0.0712
      6 C6        -16.9873   47.3719   -6.3039 C.ar        1 O2N      -0.0648
      7 C7        -16.3243   49.2316   -4.8870 C.ar        1 O2N      -0.0648
      8 C8        -15.9239   46.2393   -2.3755 C.ar        1 O2N      -0.0648
      9 C9        -17.0857   44.8570   -3.9999 C.ar        1 O2N      -0.0648
     10 C10       -23.2540   48.1827    2.7904 C.ar        1 O2N      -0.0449
     11 C11       -16.3435   47.9729   -7.3990 C.ar        1 O2N      -0.0392
     12 C12       -15.6573   49.8233   -5.9788 C.ar        1 O2N      -0.0392
     13 C13       -15.2336   45.1040   -1.9031 C.ar        1 O2N      -0.0392
     14 C14       -16.3889   43.7234   -3.5318 C.ar        1 O2N      -0.0392
     15 C15       -21.2561   46.2222   -3.8492 C.ar        1 O2N       0.0566
     16 C16       -22.4593   45.4750    2.5464 C.ar        1 O2N       0.0376
     17 C17       -16.9880   47.9872   -5.0264 C.ar        1 O2N      -0.0192
     18 C18       -16.8739   46.1285   -3.4207 C.ar        1 O2N      -0.0192
     19 C19       -22.4002   46.1884   -2.9871 C.ar        1 O2N       0.0220
     20 C20       -23.2867   46.0561    1.5434 C.ar        1 O2N      -0.0032
     21 C21       -22.4235   47.5886    3.7535 C.ar        1 O2N       0.1200
     22 C22       -22.0230   46.2708    3.6329 C.ar        1 O2N       0.1327
     23 C23       -15.6748   49.2031   -7.2438 C.ar        1 O2N       0.0839
     24 C24       -15.4557   43.8429   -2.4874 C.ar        1 O2N       0.0839
     25 C25       -22.7833   41.9946   -0.9809 C.2         1 O2N      -0.1125
     26 C26       -22.0656   42.8015   -0.1764 C.2         1 O2N      -0.0447
     27 C27       -19.9278   46.3884   -3.4274 C.2         1 O2N       0.2037
     28 C28       -22.0532   44.1303    2.5160 C.2         1 O2N       0.0515
     29 C29       -21.3263   47.0503    5.5334 C.3         1 O2N       0.1864
     30 C30       -15.3676   51.0530   -8.6860 C.3         1 O2N       0.0579
     31 C31       -13.4412   42.6911   -1.9598 C.3         1 O2N       0.0579
     32 C32       -22.3933   46.3585   -1.4934 C.3         1 O2N       0.0086
     33 C33       -23.7860   45.3010    0.3451 C.3         1 O2N       0.0003
     34 C34       -21.6766   44.1523   -0.5410 C.3         1 O2N      -0.0011
     35 C35       -17.6507   47.3379   -3.8514 C.3         1 O2N       0.0982
     36 N36       -19.0421   47.0856   -4.1358 N.am        1 O2N      -0.2653
     37 N37       -22.8294   45.0909   -0.8013 N.4         1 O2N       0.2715
     38 O38       -20.7584   43.8304    2.3109 O.co2       1 O2N      -0.5668
     39 O39       -19.5046   45.7690   -2.4483 O.2         1 O2N      -0.3883
     40 O40       -22.9072   43.1446    2.8985 O.co2       1 O2N      -0.5668
     41 O41       -21.9479   48.1686    4.8731 O.3         1 O2N      -0.2947
     42 O42       -21.2346   45.9005    4.6668 O.3         1 O2N      -0.2890
     43 O43       -14.9960   49.7111   -8.3224 O.3         1 O2N      -0.3255
     44 O44       -14.8776   42.6962   -1.9992 O.3         1 O2N      -0.3255
     45 H1        -22.9099   45.8350   -6.7985 H           1 O2N       0.0572
     46 H2        -24.8293   45.8388   -5.3216 H           1 O2N       0.0635
     47 H3        -20.7117   46.0404   -5.9184 H           1 O2N       0.0651
     48 H4        -24.5307   46.0380   -2.9591 H           1 O2N       0.0570
     49 H5        -24.2744   47.8598    0.9989 H           1 O2N       0.0445
     50 H6        -17.4661   46.4812   -6.4500 H           1 O2N       0.0534
     51 H7        -16.3015   49.7080   -3.9857 H           1 O2N       0.0534
     52 H8        -15.7394   47.1410   -1.9334 H           1 O2N       0.0534
     53 H9        -17.7719   44.7315   -4.7435 H           1 O2N       0.0534
     54 H10       -23.5490   49.1529    2.8914 H           1 O2N       0.0514
     55 H11       -16.3554   47.5119   -8.3112 H           1 O2N       0.0526
     56 H12       -15.1586   50.7047   -5.8442 H           1 O2N       0.0526
     57 H13       -14.5773   45.2070   -1.1255 H           1 O2N       0.0526
     58 H14       -16.5829   42.8080   -3.9433 H           1 O2N       0.0526
     59 H15       -23.0040   41.0727   -0.6912 H           1 O2N       0.0292
     60 H16       -23.1178   42.3164   -1.8602 H           1 O2N       0.0292
     61 H17       -21.7325   42.4327    0.6831 H           1 O2N       0.0725
     62 H18       -21.9114   46.7868    6.4188 H           1 O2N       0.0973
     63 H19       -20.3278   47.3428    5.8596 H           1 O2N       0.0973
     64 H20       -14.8712   51.2981   -9.6259 H           1 O2N       0.0575
     65 H21       -15.0395   51.7703   -7.9305 H           1 O2N       0.0575
     66 H22       -16.4468   51.1475   -8.8368 H           1 O2N       0.0575
     67 H23       -13.1191   41.6938   -1.6561 H           1 O2N       0.0575
     68 H24       -13.0640   43.4060   -1.2260 H           1 O2N       0.0575
     69 H25       -13.0096   42.9085   -2.9406 H           1 O2N       0.0575
     70 H26       -23.0889   47.1736   -1.2816 H           1 O2N       0.0995
     71 H27       -21.4402   46.6986   -1.0897 H           1 O2N       0.0995
     72 H28       -24.6544   45.8268   -0.0668 H           1 O2N       0.0966
     73 H29       -24.1933   44.3363    0.6568 H           1 O2N       0.0966
     74 H30       -21.0773   44.0606   -1.4522 H           1 O2N       0.0998
     75 H31       -21.0145   44.5664    0.2358 H           1 O2N       0.0998
     76 H32       -17.6716   48.0511   -3.0228 H           1 O2N       0.0837
     77 H33       -19.3854   47.5323   -4.9316 H           1 O2N       0.1893
     78 H34       -23.4051   44.5988   -1.4907 H           1 O2N       0.2082
@<TRIPOS>BOND
     1     1     2  ar
     2     3     1  ar
     3     4     2  ar
     4    15     3  ar
     5    19     4  ar
     6     5    10  ar
     7    20     5  ar
     8     6    11  ar
     9    17     6  ar
    10     7    12  ar
    11    17     7  ar
    12     8    13  ar
    13    18     8  ar
    14     9    14  ar
    15    18     9  ar
    16    10    21  ar
    17    11    23  ar
    18    12    23  ar
    19    13    24  ar
    20    14    24  ar
    21    15    19  ar
    22    27    15   1
    23    20    16  ar
    24    16    22  ar
    25    16    28   1
    26    35    17   1
    27    35    18   1
    28    19    32   1
    29    33    20   1
    30    22    21  ar
    31    21    41   1
    32    22    42   1
    33    23    43   1
    34    24    44   1
    35    26    25   2
    36    34    26   1
    37    36    27  am
    38    27    39   2
    39    28    38  ar
    40    28    40  ar
    41    29    41   1
    42    42    29   1
    43    43    30   1
    44    44    31   1
    45    32    37   1
    46    37    33   1
    47    37    34   1
    48    35    36   1
    49     1    45   1
    50     2    46   1
    51     3    47   1
    52     4    48   1
    53     5    49   1
    54     6    50   1
    55     7    51   1
    56     8    52   1
    57     9    53   1
    58    10    54   1
    59    11    55   1
    60    12    56   1
    61    13    57   1
    62    14    58   1
    63    25    59   1
    64    25    60   1
    65    26    61   1
    66    29    62   1
    67    29    63   1
    68    30    64   1
    69    30    65   1
    70    30    66   1
    71    31    67   1
    72    31    68   1
    73    31    69   1
    74    32    70   1
    75    32    71   1
    76    33    72   1
    77    33    73   1
    78    34    74   1
    79    34    75   1
    80    35    76   1
    81    36    77   1
    82    37    78   1
@<TRIPOS>SUBSTRUCTURE
     1  O2N      1

