@<TRIPOS>MOLECULE
3zso_ligand_026
    78    82
SMALL
GAST_HUCK
****
This file was generated by PARSER (from files_GN.cpp)

@<TRIPOS>ATOM
      1 C1        -19.0639   45.9302   -2.6026 C.ar        1 O2N      -0.0630
      2 C2        -18.4768   45.0120   -1.7276 C.ar        1 O2N      -0.0640
      3 C3        -18.3317   46.4325   -3.6835 C.ar        1 O2N      -0.0483
      4 C4        -17.1698   44.5666   -1.9706 C.ar        1 O2N      -0.0493
      5 C5        -11.3677   46.9279   -1.3854 C.ar        1 O2N      -0.0712
      6 C6        -16.4987   50.7240   -4.2997 C.ar        1 O2N      -0.0648
      7 C7        -14.8711   51.2889   -6.0126 C.ar        1 O2N      -0.0648
      8 C8        -16.0582   49.7406   -8.4537 C.ar        1 O2N      -0.0648
      9 C9        -17.8479   48.3419   -7.5753 C.ar        1 O2N      -0.0648
     10 C10       -10.3520   47.2043   -0.4535 C.ar        1 O2N      -0.0449
     11 C11       -16.3279   51.9822   -3.7206 C.ar        1 O2N      -0.0392
     12 C12       -14.7490   52.5764   -5.4702 C.ar        1 O2N      -0.0392
     13 C13       -16.7272   49.8270   -9.6881 C.ar        1 O2N      -0.0392
     14 C14       -18.5016   48.4063   -8.8190 C.ar        1 O2N      -0.0392
     15 C15       -16.9810   46.0457   -3.9313 C.ar        1 O2N       0.0566
     16 C16       -13.0069   46.7391    0.4233 C.ar        1 O2N       0.0376
     17 C17       -15.7487   50.3219   -5.4451 C.ar        1 O2N      -0.0192
     18 C18       -16.6062   49.0032   -7.3641 C.ar        1 O2N      -0.0192
     19 C19       -16.4079   45.0596   -3.0596 C.ar        1 O2N       0.0220
     20 C20       -12.7036   46.6625   -0.9707 C.ar        1 O2N      -0.0032
     21 C21       -10.6693   47.2468    0.9141 C.ar        1 O2N       0.1200
     22 C22       -11.9730   47.0357    1.3368 C.ar        1 O2N       0.1327
     23 C23       -15.4763   52.9399   -4.3158 C.ar        1 O2N       0.0839
     24 C24       -17.9401   49.1360   -9.8882 C.ar        1 O2N       0.0839
     25 C25       -11.5580   44.4856   -3.6462 C.2         1 O2N      -0.1125
     26 C26       -12.1365   43.5190   -2.9270 C.2         1 O2N      -0.0447
     27 C27       -16.3030   46.7062   -4.9731 C.2         1 O2N       0.2037
     28 C28       -14.3116   46.5794    0.9257 C.2         1 O2N       0.0515
     29 C29       -10.7345   47.5260    3.0545 C.3         1 O2N       0.1864
     30 C30       -16.4112   55.0696   -4.0265 C.3         1 O2N       0.0579
     31 C31       -18.0279   48.5147  -12.1526 C.3         1 O2N       0.0579
     32 C32       -15.0375   44.4848   -3.1788 C.3         1 O2N       0.0086
     33 C33       -13.7346   46.2762   -1.9950 C.3         1 O2N       0.0003
     34 C34       -13.0703   43.7756   -1.8261 C.3         1 O2N      -0.0011
     35 C35       -15.8678   48.9492   -6.0510 C.3         1 O2N       0.0982
     36 N36       -16.4235   48.0201   -5.0812 N.am        1 O2N      -0.2653
     37 N37       -14.1497   44.8195   -2.0016 N.4         1 O2N       0.2715
     38 O38       -14.8943   47.6310    1.5317 O.co2       1 O2N      -0.5668
     39 O39       -15.6451   46.0833   -5.8004 O.2         1 O2N      -0.3883
     40 O40       -14.6970   45.3422    1.3244 O.co2       1 O2N      -0.5668
     41 O41        -9.8271   47.4753    1.9389 O.3         1 O2N      -0.2947
     42 O42       -12.0732   47.1489    2.6758 O.3         1 O2N      -0.2890
     43 O43       -15.3066   54.1820   -3.7771 O.3         1 O2N      -0.3255
     44 O44       -18.6129   49.2576  -11.0697 O.3         1 O2N      -0.3255
     45 H1        -20.0281   46.2409   -2.4460 H           1 O2N       0.0572
     46 H2        -19.0025   44.6475   -0.9329 H           1 O2N       0.0635
     47 H3        -18.8050   47.0964   -4.3078 H           1 O2N       0.0651
     48 H4        -16.7791   43.8660   -1.3342 H           1 O2N       0.0570
     49 H5        -11.1252   46.9000   -2.3803 H           1 O2N       0.0445
     50 H6        -17.1776   50.0878   -3.8662 H           1 O2N       0.0534
     51 H7        -14.2983   51.0448   -6.8274 H           1 O2N       0.0534
     52 H8        -15.1552   50.2123   -8.3616 H           1 O2N       0.0534
     53 H9        -18.2899   47.8023   -6.8245 H           1 O2N       0.0534
     54 H10        -9.3959   47.3627   -0.7730 H           1 O2N       0.0514
     55 H11       -16.8444   52.2334   -2.8729 H           1 O2N       0.0526
     56 H12       -14.1109   53.2481   -5.9063 H           1 O2N       0.0526
     57 H13       -16.3147   50.3876  -10.4421 H           1 O2N       0.0526
     58 H14       -19.3959   47.9262   -8.9545 H           1 O2N       0.0526
     59 H15       -10.8721   44.2320   -4.3552 H           1 O2N       0.0292
     60 H16       -11.8259   45.4419   -3.5092 H           1 O2N       0.0292
     61 H17       -11.9026   42.5549   -3.1126 H           1 O2N       0.0725
     62 H18       -10.7505   48.5455    3.4524 H           1 O2N       0.0973
     63 H19       -10.3798   46.8506    3.8367 H           1 O2N       0.0973
     64 H20       -16.1417   56.0495   -3.6380 H           1 O2N       0.0575
     65 H21       -17.3150   54.7361   -3.5117 H           1 O2N       0.0575
     66 H22       -16.6233   55.1700   -5.0940 H           1 O2N       0.0575
     67 H23       -18.6640   48.6545  -13.0241 H           1 O2N       0.0575
     68 H24       -17.9843   47.4480  -11.9242 H           1 O2N       0.0575
     69 H25       -17.0273   48.8743  -12.4039 H           1 O2N       0.0575
     70 H26       -14.5268   44.7772   -4.0926 H           1 O2N       0.0995
     71 H27       -15.1709   43.4023   -3.2553 H           1 O2N       0.0995
     72 H28       -13.3806   46.5519   -3.0002 H           1 O2N       0.0966
     73 H29       -14.6252   46.8916   -1.7910 H           1 O2N       0.0966
     74 H30       -12.4820   43.9892   -0.9297 H           1 O2N       0.0998
     75 H31       -13.5779   42.8280   -1.5997 H           1 O2N       0.0998
     76 H32       -14.8576   48.5827   -6.2637 H           1 O2N       0.0837
     77 H33       -16.9992   48.4232   -4.4140 H           1 O2N       0.1893
     78 H34       -14.7514   44.7186   -1.1795 H           1 O2N       0.2082
@<TRIPOS>BOND
     1     1     2  ar
     2     3     1  ar
     3     4     2  ar
     4    15     3  ar
     5    19     4  ar
     6     5    10  ar
     7    20     5  ar
     8     6    11  ar
     9    17     6  ar
    10     7    12  ar
    11    17     7  ar
    12     8    13  ar
    13    18     8  ar
    14     9    14  ar
    15    18     9  ar
    16    10    21  ar
    17    11    23  ar
    18    12    23  ar
    19    13    24  ar
    20    14    24  ar
    21    15    19  ar
    22    27    15   1
    23    20    16  ar
    24    16    22  ar
    25    16    28   1
    26    35    17   1
    27    35    18   1
    28    19    32   1
    29    33    20   1
    30    22    21  ar
    31    21    41   1
    32    22    42   1
    33    23    43   1
    34    24    44   1
    35    26    25   2
    36    34    26   1
    37    36    27  am
    38    27    39   2
    39    28    38  ar
    40    28    40  ar
    41    29    41   1
    42    42    29   1
    43    43    30   1
    44    44    31   1
    45    32    37   1
    46    37    33   1
    47    37    34   1
    48    35    36   1
    49     1    45   1
    50     2    46   1
    51     3    47   1
    52     4    48   1
    53     5    49   1
    54     6    50   1
    55     7    51   1
    56     8    52   1
    57     9    53   1
    58    10    54   1
    59    11    55   1
    60    12    56   1
    61    13    57   1
    62    14    58   1
    63    25    59   1
    64    25    60   1
    65    26    61   1
    66    29    62   1
    67    29    63   1
    68    30    64   1
    69    30    65   1
    70    30    66   1
    71    31    67   1
    72    31    68   1
    73    31    69   1
    74    32    70   1
    75    32    71   1
    76    33    72   1
    77    33    73   1
    78    34    74   1
    79    34    75   1
    80    35    76   1
    81    36    77   1
    82    37    78   1
@<TRIPOS>SUBSTRUCTURE
     1  O2N      1

