@<TRIPOS>MOLECULE
3zso_ligand_067
    78    82
SMALL
GAST_HUCK
****
This file was generated by PARSER (from files_GN.cpp)

@<TRIPOS>ATOM
      1 C1        -15.7966   46.6447   -6.3337 C.ar        1 O2N      -0.0630
      2 C2        -17.1360   46.8324   -6.6969 C.ar        1 O2N      -0.0640
      3 C3        -15.4761   46.3210   -5.0084 C.ar        1 O2N      -0.0483
      4 C4        -18.1450   46.7042   -5.7298 C.ar        1 O2N      -0.0493
      5 C5        -22.3586   48.7602   -1.2116 C.ar        1 O2N      -0.0712
      6 C6        -12.7125   47.8312   -1.1393 C.ar        1 O2N      -0.0648
      7 C7        -14.2479   47.8016    0.7497 C.ar        1 O2N      -0.0648
      8 C8        -12.2507   44.6915   -0.1012 C.ar        1 O2N      -0.0648
      9 C9        -13.5425   43.6639   -1.8780 C.ar        1 O2N      -0.0648
     10 C10       -22.7054   48.9589    0.1332 C.ar        1 O2N      -0.0449
     11 C11       -12.1756   49.0523   -0.6849 C.ar        1 O2N      -0.0392
     12 C12       -13.6981   49.0134    1.2135 C.ar        1 O2N      -0.0392
     13 C13       -11.3521   43.6055   -0.1238 C.ar        1 O2N      -0.0392
     14 C14       -12.6521   42.5749   -1.8950 C.ar        1 O2N      -0.0392
     15 C15       -16.4790   46.1924   -4.0068 C.ar        1 O2N       0.0566
     16 C16       -21.5092   46.5091   -0.7019 C.ar        1 O2N       0.0376
     17 C17       -13.7553   47.1866   -0.4303 C.ar        1 O2N      -0.0192
     18 C18       -13.3462   44.7662   -1.0041 C.ar        1 O2N      -0.0192
     19 C19       -17.8453   46.4383   -4.3750 C.ar        1 O2N       0.0220
     20 C20       -21.7582   47.5493   -1.6596 C.ar        1 O2N      -0.0032
     21 C21       -22.4333   47.9438    1.0551 C.ar        1 O2N       0.1200
     22 C22       -21.8494   46.7535    0.6527 C.ar        1 O2N       0.1327
     23 C23       -12.6731   49.6513    0.4864 C.ar        1 O2N       0.0839
     24 C24       -11.5368   42.5516   -1.0390 C.ar        1 O2N       0.0839
     25 C25       -17.1244   49.6978   -4.4269 C.2         1 O2N      -0.1125
     26 C26       -18.1014   49.4489   -3.5353 C.2         1 O2N      -0.0447
     27 C27       -16.0703   45.7988   -2.7266 C.2         1 O2N       0.2037
     28 C28       -20.9652   45.2436   -1.0309 C.2         1 O2N       0.0515
     29 C29       -22.4110   46.6156    2.7477 C.3         1 O2N       0.1864
     30 C30       -12.8682   51.9802    0.5895 C.3         1 O2N       0.0579
     31 C31        -9.5271   41.6896   -1.8782 C.3         1 O2N       0.0579
     32 C32       -19.0134   46.4313   -3.4353 C.3         1 O2N       0.0086
     33 C33       -21.3087   47.4912   -3.0841 C.3         1 O2N       0.0003
     34 C34       -19.4231   48.9617   -3.8853 C.3         1 O2N      -0.0011
     35 C35       -14.3321   45.9014   -0.9399 C.3         1 O2N       0.0982
     36 N36       -14.9151   46.2234   -2.2158 N.am        1 O2N      -0.2653
     37 N37       -19.8061   47.6956   -3.1631 N.4         1 O2N       0.2715
     38 O38       -21.3282   44.5789   -2.1459 O.co2       1 O2N      -0.5668
     39 O39       -16.6891   44.9208   -2.1399 O.2         1 O2N      -0.3883
     40 O40       -20.1844   44.5609   -0.1559 O.co2       1 O2N      -0.5668
     41 O41       -22.6892   47.9746    2.3750 O.3         1 O2N      -0.2947
     42 O42       -21.6966   45.9247    1.7053 O.3         1 O2N      -0.2890
     43 O43       -12.1096   50.8112    0.9410 O.3         1 O2N      -0.3255
     44 O44       -10.6831   41.4837   -1.0465 O.3         1 O2N      -0.3255
     45 H1        -15.0617   46.7114   -7.0401 H           1 O2N       0.0572
     46 H2        -17.3767   47.0673   -7.6595 H           1 O2N       0.0635
     47 H3        -14.4886   46.1542   -4.7906 H           1 O2N       0.0651
     48 H4        -19.1132   46.8142   -6.0325 H           1 O2N       0.0570
     49 H5        -22.5341   49.5257   -1.8718 H           1 O2N       0.0445
     50 H6        -12.3306   47.4173   -1.9897 H           1 O2N       0.0534
     51 H7        -14.9955   47.3587    1.2932 H           1 O2N       0.0534
     52 H8        -12.0981   45.4222    0.5952 H           1 O2N       0.0534
     53 H9        -14.3459   43.6316   -2.5063 H           1 O2N       0.0534
     54 H10       -23.1382   49.8307    0.4383 H           1 O2N       0.0514
     55 H11       -11.4241   49.5028   -1.2110 H           1 O2N       0.0526
     56 H12       -14.0447   49.4315    2.0750 H           1 O2N       0.0526
     57 H13       -10.5733   43.5767    0.5363 H           1 O2N       0.0526
     58 H14       -12.8203   41.7917   -2.5296 H           1 O2N       0.0526
     59 H15       -16.2660   50.1004   -4.1250 H           1 O2N       0.0292
     60 H16       -17.2647   49.5515   -5.3975 H           1 O2N       0.0292
     61 H17       -17.9054   49.6204   -2.5788 H           1 O2N       0.0725
     62 H18       -23.3544   46.0959    2.9386 H           1 O2N       0.0973
     63 H19       -21.8128   46.6088    3.6599 H           1 O2N       0.0973
     64 H20       -12.3102   52.8611    0.9128 H           1 O2N       0.0575
     65 H21       -13.8358   51.9866    1.0969 H           1 O2N       0.0575
     66 H22       -13.0168   52.0514   -0.4914 H           1 O2N       0.0575
     67 H23        -8.9081   40.7931   -1.8187 H           1 O2N       0.0575
     68 H24        -8.9314   42.5388   -1.5334 H           1 O2N       0.0575
     69 H25        -9.8100   41.8397   -2.9252 H           1 O2N       0.0575
     70 H26       -18.6982   46.1278   -2.4382 H           1 O2N       0.0995
     71 H27       -19.6550   45.6161   -3.7866 H           1 O2N       0.0995
     72 H28       -21.8427   48.2403   -3.6825 H           1 O2N       0.0966
     73 H29       -21.6460   46.5549   -3.5330 H           1 O2N       0.0966
     74 H30       -19.5582   48.8301   -4.9658 H           1 O2N       0.0998
     75 H31       -20.1006   49.7783   -3.5840 H           1 O2N       0.0998
     76 H32       -15.1221   45.5643   -0.2593 H           1 O2N       0.0837
     77 H33       -14.4072   46.8409   -2.7652 H           1 O2N       0.1893
     78 H34       -19.5491   47.9230   -2.1956 H           1 O2N       0.2082
@<TRIPOS>BOND
     1     1     2  ar
     2     3     1  ar
     3     4     2  ar
     4    15     3  ar
     5    19     4  ar
     6     5    10  ar
     7    20     5  ar
     8     6    11  ar
     9    17     6  ar
    10     7    12  ar
    11    17     7  ar
    12     8    13  ar
    13    18     8  ar
    14     9    14  ar
    15    18     9  ar
    16    10    21  ar
    17    11    23  ar
    18    12    23  ar
    19    13    24  ar
    20    14    24  ar
    21    15    19  ar
    22    27    15   1
    23    20    16  ar
    24    16    22  ar
    25    16    28   1
    26    35    17   1
    27    35    18   1
    28    19    32   1
    29    33    20   1
    30    22    21  ar
    31    21    41   1
    32    22    42   1
    33    23    43   1
    34    24    44   1
    35    26    25   2
    36    34    26   1
    37    36    27  am
    38    27    39   2
    39    28    38  ar
    40    28    40  ar
    41    29    41   1
    42    42    29   1
    43    43    30   1
    44    44    31   1
    45    32    37   1
    46    37    33   1
    47    37    34   1
    48    35    36   1
    49     1    45   1
    50     2    46   1
    51     3    47   1
    52     4    48   1
    53     5    49   1
    54     6    50   1
    55     7    51   1
    56     8    52   1
    57     9    53   1
    58    10    54   1
    59    11    55   1
    60    12    56   1
    61    13    57   1
    62    14    58   1
    63    25    59   1
    64    25    60   1
    65    26    61   1
    66    29    62   1
    67    29    63   1
    68    30    64   1
    69    30    65   1
    70    30    66   1
    71    31    67   1
    72    31    68   1
    73    31    69   1
    74    32    70   1
    75    32    71   1
    76    33    72   1
    77    33    73   1
    78    34    74   1
    79    34    75   1
    80    35    76   1
    81    36    77   1
    82    37    78   1
@<TRIPOS>SUBSTRUCTURE
     1  O2N      1

