@<TRIPOS>MOLECULE
3zso_ligand_025
    78    82
SMALL
GAST_HUCK
****
This file was generated by PARSER (from files_GN.cpp)

@<TRIPOS>ATOM
      1 C1        -19.7752   46.8489   -5.6295 C.ar        1 O2N      -0.0630
      2 C2        -19.1146   45.6151   -5.6760 C.ar        1 O2N      -0.0640
      3 C3        -19.2254   47.9097   -4.8910 C.ar        1 O2N      -0.0483
      4 C4        -17.9014   45.4478   -4.9907 C.ar        1 O2N      -0.0493
      5 C5        -12.8946   45.8246   -2.5852 C.ar        1 O2N      -0.0712
      6 C6        -19.0516   52.0115   -1.8716 C.ar        1 O2N      -0.0648
      7 C7        -18.7026   53.3171   -3.8914 C.ar        1 O2N      -0.0648
      8 C8        -15.4243   53.0986   -3.8190 C.ar        1 O2N      -0.0648
      9 C9        -15.6669   51.3431   -5.4786 C.ar        1 O2N      -0.0648
     10 C10       -11.5488   45.4247   -2.6853 C.ar        1 O2N      -0.0449
     11 C11       -20.1117   52.8596   -1.5039 C.ar        1 O2N      -0.0392
     12 C12       -19.7568   54.1704   -3.5213 C.ar        1 O2N      -0.0392
     13 C13       -14.3856   53.6725   -4.5755 C.ar        1 O2N      -0.0392
     14 C14       -14.6311   51.9148   -6.2353 C.ar        1 O2N      -0.0392
     15 C15       -18.0042   47.7651   -4.1799 C.ar        1 O2N       0.0566
     16 C16       -12.7675   45.7418   -0.1369 C.ar        1 O2N       0.0376
     17 C17       -18.3114   52.2372   -3.0600 C.ar        1 O2N      -0.0192
     18 C18       -16.0869   51.9229   -4.2532 C.ar        1 O2N      -0.0192
     19 C19       -17.3242   46.5014   -4.2351 C.ar        1 O2N       0.0220
     20 C20       -13.5355   45.9742   -1.3272 C.ar        1 O2N      -0.0032
     21 C21       -10.8245   45.1921   -1.5097 C.ar        1 O2N       0.1200
     22 C22       -11.4155   45.3517   -0.2668 C.ar        1 O2N       0.1327
     23 C23       -20.4682   53.9457   -2.3264 C.ar        1 O2N       0.0839
     24 C24       -13.9712   53.0725   -5.7792 C.ar        1 O2N       0.0839
     25 C25       -18.6148   44.6666   -1.2629 C.2         1 O2N      -0.1125
     26 C26       -17.3749   44.2194   -1.0174 C.2         1 O2N      -0.0447
     27 C27       -17.5113   48.8712   -3.4777 C.2         1 O2N       0.2037
     28 C28       -13.2670   45.9206    1.1717 C.2         1 O2N       0.0515
     29 C29        -9.3306   44.7950   -0.0016 C.3         1 O2N       0.1864
     30 C30       -22.7449   54.5073   -2.4634 C.3         1 O2N       0.0579
     31 C31       -11.7000   53.0272   -6.3746 C.3         1 O2N       0.0579
     32 C32       -15.9662   46.2736   -3.6391 C.3         1 O2N       0.0086
     33 C33       -14.9392   46.5092   -1.3110 C.3         1 O2N       0.0003
     34 C34       -16.2682   44.4319   -1.9331 C.3         1 O2N      -0.0011
     35 C35       -17.1587   51.3324   -3.3812 C.3         1 O2N       0.0982
     36 N36       -17.7109   50.1141   -3.9186 N.am        1 O2N      -0.2653
     37 N37       -16.0109   45.8975   -2.1794 N.4         1 O2N       0.2715
     38 O38       -12.7246   46.8466    1.9977 O.co2       1 O2N      -0.5668
     39 O39       -16.8813   48.6865   -2.4488 O.2         1 O2N      -0.3883
     40 O40       -14.3214   45.2103    1.6265 O.co2       1 O2N      -0.5668
     41 O41        -9.5366   44.8111   -1.4244 O.3         1 O2N      -0.2947
     42 O42       -10.5443   45.0629    0.7230 O.3         1 O2N      -0.2890
     43 O43       -21.4475   54.8147   -1.9250 O.3         1 O2N      -0.3255
     44 O44       -12.9833   53.6579   -6.5244 O.3         1 O2N      -0.3255
     45 H1        -20.6508   46.9779   -6.1404 H           1 O2N       0.0572
     46 H2        -19.5080   44.8456   -6.2205 H           1 O2N       0.0635
     47 H3        -19.7408   48.7943   -4.8722 H           1 O2N       0.0651
     48 H4        -17.4287   44.5425   -5.0712 H           1 O2N       0.0570
     49 H5        -13.3924   46.0330   -3.4488 H           1 O2N       0.0445
     50 H6        -18.8091   51.2351   -1.2507 H           1 O2N       0.0534
     51 H7        -18.2106   53.5045   -4.7658 H           1 O2N       0.0534
     52 H8        -15.6922   53.5494   -2.9385 H           1 O2N       0.0534
     53 H9        -16.1088   50.4954   -5.8349 H           1 O2N       0.0534
     54 H10       -11.0999   45.3219   -3.5986 H           1 O2N       0.0514
     55 H11       -20.6171   52.6932   -0.6299 H           1 O2N       0.0526
     56 H12       -20.0023   54.9629   -4.1198 H           1 O2N       0.0526
     57 H13       -13.9299   54.5273   -4.2473 H           1 O2N       0.0526
     58 H14       -14.3531   51.4838   -7.1203 H           1 O2N       0.0526
     59 H15       -19.3510   44.4779   -0.6252 H           1 O2N       0.0292
     60 H16       -18.8265   45.1636   -2.0940 H           1 O2N       0.0292
     61 H17       -17.2180   43.6902   -0.1898 H           1 O2N       0.0725
     62 H18        -8.5882   45.5519    0.2598 H           1 O2N       0.0973
     63 H19        -8.9436   43.8177    0.2927 H           1 O2N       0.0973
     64 H20       -23.4517   55.2428   -2.0789 H           1 O2N       0.0575
     65 H21       -23.0802   53.5145   -2.1519 H           1 O2N       0.0575
     66 H22       -22.7457   54.5704   -3.5546 H           1 O2N       0.0575
     67 H23       -10.9789   53.5854   -6.9708 H           1 O2N       0.0575
     68 H24       -11.7206   51.9982   -6.7408 H           1 O2N       0.0575
     69 H25       -11.3646   53.0383   -5.3345 H           1 O2N       0.0575
     70 H26       -15.3892   47.1849   -3.8027 H           1 O2N       0.0995
     71 H27       -15.4254   45.5054   -4.2026 H           1 O2N       0.0995
     72 H28       -14.8593   47.5760   -1.5263 H           1 O2N       0.0966
     73 H29       -15.3458   46.4759   -0.3034 H           1 O2N       0.0966
     74 H30       -16.5074   43.8938   -2.8538 H           1 O2N       0.0998
     75 H31       -15.3800   43.9366   -1.5349 H           1 O2N       0.0998
     76 H32       -16.6429   51.1242   -2.4371 H           1 O2N       0.0837
     77 H33       -18.2260   50.2103   -4.7362 H           1 O2N       0.1893
     78 H34       -16.8450   46.3611   -1.8198 H           1 O2N       0.2082
@<TRIPOS>BOND
     1     1     2  ar
     2     3     1  ar
     3     4     2  ar
     4    15     3  ar
     5    19     4  ar
     6     5    10  ar
     7    20     5  ar
     8     6    11  ar
     9    17     6  ar
    10     7    12  ar
    11    17     7  ar
    12     8    13  ar
    13    18     8  ar
    14     9    14  ar
    15    18     9  ar
    16    10    21  ar
    17    11    23  ar
    18    12    23  ar
    19    13    24  ar
    20    14    24  ar
    21    15    19  ar
    22    27    15   1
    23    20    16  ar
    24    16    22  ar
    25    16    28   1
    26    35    17   1
    27    35    18   1
    28    19    32   1
    29    33    20   1
    30    22    21  ar
    31    21    41   1
    32    22    42   1
    33    23    43   1
    34    24    44   1
    35    26    25   2
    36    34    26   1
    37    36    27  am
    38    27    39   2
    39    28    38  ar
    40    28    40  ar
    41    29    41   1
    42    42    29   1
    43    43    30   1
    44    44    31   1
    45    32    37   1
    46    37    33   1
    47    37    34   1
    48    35    36   1
    49     1    45   1
    50     2    46   1
    51     3    47   1
    52     4    48   1
    53     5    49   1
    54     6    50   1
    55     7    51   1
    56     8    52   1
    57     9    53   1
    58    10    54   1
    59    11    55   1
    60    12    56   1
    61    13    57   1
    62    14    58   1
    63    25    59   1
    64    25    60   1
    65    26    61   1
    66    29    62   1
    67    29    63   1
    68    30    64   1
    69    30    65   1
    70    30    66   1
    71    31    67   1
    72    31    68   1
    73    31    69   1
    74    32    70   1
    75    32    71   1
    76    33    72   1
    77    33    73   1
    78    34    74   1
    79    34    75   1
    80    35    76   1
    81    36    77   1
    82    37    78   1
@<TRIPOS>SUBSTRUCTURE
     1  O2N      1

