@<TRIPOS>MOLECULE
3zso_ligand_043
    78    82
SMALL
GAST_HUCK
****
This file was generated by PARSER (from files_GN.cpp)

@<TRIPOS>ATOM
      1 C1         -5.3626   44.4884    2.2655 C.ar        1 O2N      -0.0630
      2 C2         -5.5676   45.8688    2.1513 C.ar        1 O2N      -0.0640
      3 C3         -6.1150   43.6022    1.4753 C.ar        1 O2N      -0.0483
      4 C4         -6.5361   46.3628    1.2653 C.ar        1 O2N      -0.0493
      5 C5        -10.0182   49.4223   -1.0170 C.ar        1 O2N      -0.0712
      6 C6         -9.1311   40.0999   -2.2711 C.ar        1 O2N      -0.0648
      7 C7         -8.2979   39.6190   -0.0449 C.ar        1 O2N      -0.0648
      8 C8        -12.1450   41.9705   -1.1928 C.ar        1 O2N      -0.0648
      9 C9        -10.3862   43.3051   -2.1863 C.ar        1 O2N      -0.0648
     10 C10       -10.8101   50.2902   -1.7903 C.ar        1 O2N      -0.0449
     11 C11        -8.4875   38.9541   -2.7631 C.ar        1 O2N      -0.0392
     12 C12        -7.6513   38.4691   -0.5412 C.ar        1 O2N      -0.0392
     13 C13       -13.1005   42.6284   -1.9944 C.ar        1 O2N      -0.0392
     14 C14       -11.3345   43.9703   -2.9796 C.ar        1 O2N      -0.0392
     15 C15        -7.1120   44.0858    0.5921 C.ar        1 O2N       0.0566
     16 C16       -11.7536   49.3307    0.7141 C.ar        1 O2N       0.0376
     17 C17        -9.0614   40.4519   -0.9018 C.ar        1 O2N      -0.0192
     18 C18       -10.7722   42.3284   -1.2367 C.ar        1 O2N      -0.0192
     19 C19        -7.3566   45.4939    0.5020 C.ar        1 O2N       0.0220
     20 C20       -10.4669   48.9310    0.2423 C.ar        1 O2N      -0.0032
     21 C21       -12.0658   50.6653   -1.3017 C.ar        1 O2N       0.1200
     22 C22       -12.5310   50.1928   -0.0854 C.ar        1 O2N       0.1327
     23 C23        -7.7434   38.1180   -1.9050 C.ar        1 O2N       0.0839
     24 C24       -12.7043   43.6626   -2.8645 C.ar        1 O2N       0.0839
     25 C25       -12.7318   45.3939    1.4815 C.2         1 O2N      -0.1125
     26 C26       -11.5498   45.8508    1.9126 C.2         1 O2N      -0.0447
     27 C27        -7.7853   43.1498   -0.1632 C.2         1 O2N       0.2037
     28 C28       -12.3008   48.8909    1.9308 C.2         1 O2N       0.0515
     29 C29       -14.1261   51.2303   -1.1003 C.3         1 O2N       0.1864
     30 C30        -6.6859   36.7558   -3.6276 C.3         1 O2N       0.0579
     31 C31       -13.8674   45.6711   -3.2460 C.3         1 O2N       0.0579
     32 C32        -8.4466   46.1068   -0.3320 C.3         1 O2N       0.0086
     33 C33        -9.5717   47.9862    0.9759 C.3         1 O2N       0.0003
     34 C34       -10.2712   45.5418    1.2888 C.3         1 O2N      -0.0011
     35 C35        -9.7771   41.6436   -0.3353 C.3         1 O2N       0.0982
     36 N36        -8.8920   42.5830    0.3083 N.am        1 O2N      -0.2653
     37 N37        -9.6768   46.5966    0.3914 N.4         1 O2N       0.2715
     38 O38       -13.4509   48.1814    1.9239 O.co2       1 O2N      -0.5668
     39 O39        -7.2768   42.8033   -1.2208 O.2         1 O2N      -0.3883
     40 O40       -11.9878   49.5673    3.0592 O.co2       1 O2N      -0.5668
     41 O41       -12.9582   51.4778   -1.8998 O.3         1 O2N      -0.2947
     42 O42       -13.7649   50.6727    0.1747 O.3         1 O2N      -0.2890
     43 O43        -7.1806   36.9241   -2.2874 O.3         1 O2N      -0.3255
     44 O44       -13.6396   44.3023   -3.6314 O.3         1 O2N      -0.3255
     45 H1         -4.6570   44.1256    2.9102 H           1 O2N       0.0572
     46 H2         -5.0101   46.5165    2.7154 H           1 O2N       0.0635
     47 H3         -5.9277   42.5965    1.5585 H           1 O2N       0.0651
     48 H4         -6.6273   47.3771    1.1782 H           1 O2N       0.0570
     49 H5         -9.1008   49.1577   -1.3802 H           1 O2N       0.0445
     50 H6         -9.6577   40.6710   -2.9290 H           1 O2N       0.0534
     51 H7         -8.2193   39.8361    0.9502 H           1 O2N       0.0534
     52 H8        -12.4635   41.2133   -0.5851 H           1 O2N       0.0534
     53 H9         -9.4019   43.5375   -2.3235 H           1 O2N       0.0534
     54 H10       -10.4802   50.6359   -2.6915 H           1 O2N       0.0514
     55 H11        -8.5741   38.7275   -3.7539 H           1 O2N       0.0526
     56 H12        -7.1233   37.8746    0.1039 H           1 O2N       0.0526
     57 H13       -14.0848   42.3585   -1.9347 H           1 O2N       0.0526
     58 H14       -11.0293   44.6948   -3.6373 H           1 O2N       0.0526
     59 H15       -13.5629   45.6055    1.9811 H           1 O2N       0.0292
     60 H16       -12.7994   44.8530    0.6518 H           1 O2N       0.0292
     61 H17       -11.5381   46.3779    2.7532 H           1 O2N       0.0725
     62 H18       -14.7824   50.5306   -1.6286 H           1 O2N       0.0973
     63 H19       -14.6660   52.1653   -0.9500 H           1 O2N       0.0973
     64 H20        -6.1950   35.7819   -3.6836 H           1 O2N       0.0575
     65 H21        -5.9569   37.5240   -3.8854 H           1 O2N       0.0575
     66 H22        -7.4990   36.7613   -4.3528 H           1 O2N       0.0575
     67 H23       -14.6104   46.0960   -3.9199 H           1 O2N       0.0575
     68 H24       -12.9576   46.2720   -3.3262 H           1 O2N       0.0575
     69 H25       -14.2529   45.7345   -2.2245 H           1 O2N       0.0575
     70 H26        -8.7885   45.3873   -1.0786 H           1 O2N       0.0995
     71 H27        -8.0148   46.9169   -0.9267 H           1 O2N       0.0995
     72 H28        -9.7925   47.9862    2.0434 H           1 O2N       0.0966
     73 H29        -8.5640   48.3958    0.9054 H           1 O2N       0.0966
     74 H30       -10.4089   44.6425    0.6837 H           1 O2N       0.0998
     75 H31        -9.5652   45.2864    2.0848 H           1 O2N       0.0998
     76 H32       -10.3569   41.2375    0.5039 H           1 O2N       0.0837
     77 H33        -9.1476   42.8494    1.2078 H           1 O2N       0.1893
     78 H34       -10.3768   46.6911   -0.3494 H           1 O2N       0.2082
@<TRIPOS>BOND
     1     1     2  ar
     2     3     1  ar
     3     4     2  ar
     4    15     3  ar
     5    19     4  ar
     6     5    10  ar
     7    20     5  ar
     8     6    11  ar
     9    17     6  ar
    10     7    12  ar
    11    17     7  ar
    12     8    13  ar
    13    18     8  ar
    14     9    14  ar
    15    18     9  ar
    16    10    21  ar
    17    11    23  ar
    18    12    23  ar
    19    13    24  ar
    20    14    24  ar
    21    15    19  ar
    22    27    15   1
    23    20    16  ar
    24    16    22  ar
    25    16    28   1
    26    35    17   1
    27    35    18   1
    28    19    32   1
    29    33    20   1
    30    22    21  ar
    31    21    41   1
    32    22    42   1
    33    23    43   1
    34    24    44   1
    35    26    25   2
    36    34    26   1
    37    36    27  am
    38    27    39   2
    39    28    38  ar
    40    28    40  ar
    41    29    41   1
    42    42    29   1
    43    43    30   1
    44    44    31   1
    45    32    37   1
    46    37    33   1
    47    37    34   1
    48    35    36   1
    49     1    45   1
    50     2    46   1
    51     3    47   1
    52     4    48   1
    53     5    49   1
    54     6    50   1
    55     7    51   1
    56     8    52   1
    57     9    53   1
    58    10    54   1
    59    11    55   1
    60    12    56   1
    61    13    57   1
    62    14    58   1
    63    25    59   1
    64    25    60   1
    65    26    61   1
    66    29    62   1
    67    29    63   1
    68    30    64   1
    69    30    65   1
    70    30    66   1
    71    31    67   1
    72    31    68   1
    73    31    69   1
    74    32    70   1
    75    32    71   1
    76    33    72   1
    77    33    73   1
    78    34    74   1
    79    34    75   1
    80    35    76   1
    81    36    77   1
    82    37    78   1
@<TRIPOS>SUBSTRUCTURE
     1  O2N      1

