@<TRIPOS>MOLECULE
3zso_ligand_058
    78    82
SMALL
GAST_HUCK
****
This file was generated by PARSER (from files_GN.cpp)

@<TRIPOS>ATOM
      1 C1        -17.6490   44.3119   -5.7560 C.ar        1 O2N      -0.0630
      2 C2        -16.8497   43.3602   -5.1096 C.ar        1 O2N      -0.0640
      3 C3        -17.4027   45.6804   -5.5615 C.ar        1 O2N      -0.0483
      4 C4        -15.7794   43.7813   -4.3009 C.ar        1 O2N      -0.0493
      5 C5        -11.1347   45.1016   -2.1520 C.ar        1 O2N      -0.0712
      6 C6        -17.6690   49.9520   -7.3889 C.ar        1 O2N      -0.0648
      7 C7        -18.2266   50.8522   -5.1998 C.ar        1 O2N      -0.0648
      8 C8        -14.6805   51.8242   -6.1025 C.ar        1 O2N      -0.0648
      9 C9        -13.8877   49.7155   -7.0053 C.ar        1 O2N      -0.0648
     10 C10       -10.2187   44.0692   -1.8771 C.ar        1 O2N      -0.0449
     11 C11       -18.9213   50.3688   -7.8777 C.ar        1 O2N      -0.0392
     12 C12       -19.4763   51.2661   -5.6850 C.ar        1 O2N      -0.0392
     13 C13       -13.5983   52.4949   -6.7059 C.ar        1 O2N      -0.0392
     14 C14       -12.8056   50.3825   -7.6069 C.ar        1 O2N      -0.0392
     15 C15       -16.3392   46.1229   -4.7341 C.ar        1 O2N       0.0566
     16 C16       -11.9061   45.0773    0.1732 C.ar        1 O2N       0.0376
     17 C17       -17.2983   50.1946   -6.0439 C.ar        1 O2N      -0.0192
     18 C18       -14.8411   50.4208   -6.2302 C.ar        1 O2N      -0.0192
     19 C19       -15.4827   45.1588   -4.1137 C.ar        1 O2N       0.0220
     20 C20       -12.0110   45.6013   -1.1529 C.ar        1 O2N      -0.0032
     21 C21       -10.1786   43.5315   -0.5815 C.ar        1 O2N       0.1200
     22 C22       -10.9978   44.0271    0.4171 C.ar        1 O2N       0.1327
     23 C23       -19.8257   51.0398   -7.0326 C.ar        1 O2N       0.0839
     24 C24       -12.6482   51.7730   -7.4544 C.ar        1 O2N       0.0839
     25 C25       -15.1538   47.5998    0.4995 C.2         1 O2N      -0.1125
     26 C26       -15.3723   46.3019    0.2064 C.2         1 O2N      -0.0447
     27 C27       -16.2150   47.4864   -4.5242 C.2         1 O2N       0.2037
     28 C28       -12.6815   45.5394    1.2479 C.2         1 O2N       0.0515
     29 C29        -9.8070   42.3987    1.2177 C.3         1 O2N       0.1864
     30 C30       -21.1038   52.7738   -7.9583 C.3         1 O2N       0.0579
     31 C31       -10.7860   53.2064   -7.2491 C.3         1 O2N       0.0579
     32 C32       -14.2181   45.5153   -3.3765 C.3         1 O2N       0.0086
     33 C33       -12.9657   46.7070   -1.5224 C.3         1 O2N       0.0003
     34 C34       -15.3237   45.7680   -1.1433 C.3         1 O2N      -0.0011
     35 C35       -15.9736   49.7540   -5.5115 C.3         1 O2N       0.0982
     36 N36       -15.9749   48.3128   -5.5396 N.am        1 O2N      -0.2653
     37 N37       -14.3037   46.3228   -2.1029 N.4         1 O2N       0.2715
     38 O38       -12.2633   46.5715    2.0201 O.co2       1 O2N      -0.5668
     39 O39       -16.5106   47.9173   -3.4159 O.2         1 O2N      -0.3883
     40 O40       -13.7721   44.8410    1.6250 O.co2       1 O2N      -0.5668
     41 O41        -9.3557   42.5624   -0.1360 O.3         1 O2N      -0.2947
     42 O42       -10.7531   43.4138    1.5950 O.3         1 O2N      -0.2890
     43 O43       -21.0570   51.4124   -7.4997 O.3         1 O2N      -0.3255
     44 O44       -11.6170   52.4031   -8.1014 O.3         1 O2N      -0.3255
     45 H1        -18.4168   44.0082   -6.3568 H           1 O2N       0.0572
     46 H2        -17.0332   42.3656   -5.2358 H           1 O2N       0.0635
     47 H3        -18.0297   46.3502   -6.0160 H           1 O2N       0.0651
     48 H4        -15.2009   43.0634   -3.8577 H           1 O2N       0.0570
     49 H5        -11.1627   45.4919   -3.1037 H           1 O2N       0.0445
     50 H6        -17.0292   49.4660   -8.0213 H           1 O2N       0.0534
     51 H7        -17.9991   51.0301   -4.2185 H           1 O2N       0.0534
     52 H8        -15.3532   52.3746   -5.5614 H           1 O2N       0.0534
     53 H9        -13.9720   48.7091   -7.1420 H           1 O2N       0.0534
     54 H10        -9.5982   43.7221   -2.6061 H           1 O2N       0.0514
     55 H11       -19.1749   50.1840   -8.8523 H           1 O2N       0.0526
     56 H12       -20.1345   51.7362   -5.0595 H           1 O2N       0.0526
     57 H13       -13.5027   53.5062   -6.5936 H           1 O2N       0.0526
     58 H14       -12.1273   49.8512   -8.1599 H           1 O2N       0.0526
     59 H15       -15.2147   47.9139    1.4565 H           1 O2N       0.0292
     60 H16       -14.9354   48.2473   -0.2098 H           1 O2N       0.0292
     61 H17       -15.5903   45.6826    0.9518 H           1 O2N       0.0725
     62 H18        -8.9512   42.4399    1.8945 H           1 O2N       0.0973
     63 H19       -10.2820   41.4197    1.3216 H           1 O2N       0.0973
     64 H20       -22.1100   52.9744   -8.3243 H           1 O2N       0.0575
     65 H21       -20.4011   52.9425   -8.7793 H           1 O2N       0.0575
     66 H22       -20.8909   53.4755   -7.1459 H           1 O2N       0.0575
     67 H23        -9.9170   53.5298   -7.8259 H           1 O2N       0.0575
     68 H24       -10.4290   52.6470   -6.3789 H           1 O2N       0.0575
     69 H25       -11.3181   54.0974   -6.9126 H           1 O2N       0.0575
     70 H26       -13.6070   46.0746   -4.0874 H           1 O2N       0.0995
     71 H27       -13.6590   44.6020   -3.1506 H           1 O2N       0.0995
     72 H28       -12.4698   47.3716   -2.2412 H           1 O2N       0.0966
     73 H29       -13.1538   47.3556   -0.6457 H           1 O2N       0.0966
     74 H30       -16.3188   45.9566   -1.5538 H           1 O2N       0.0998
     75 H31       -15.2039   44.6810   -1.0772 H           1 O2N       0.0998
     76 H32       -15.8656   50.0768   -4.4720 H           1 O2N       0.0837
     77 H33       -15.8473   47.8950   -6.4123 H           1 O2N       0.1893
     78 H34       -14.6782   47.2160   -2.4118 H           1 O2N       0.2082
@<TRIPOS>BOND
     1     1     2  ar
     2     3     1  ar
     3     4     2  ar
     4    15     3  ar
     5    19     4  ar
     6     5    10  ar
     7    20     5  ar
     8     6    11  ar
     9    17     6  ar
    10     7    12  ar
    11    17     7  ar
    12     8    13  ar
    13    18     8  ar
    14     9    14  ar
    15    18     9  ar
    16    10    21  ar
    17    11    23  ar
    18    12    23  ar
    19    13    24  ar
    20    14    24  ar
    21    15    19  ar
    22    27    15   1
    23    20    16  ar
    24    16    22  ar
    25    16    28   1
    26    35    17   1
    27    35    18   1
    28    19    32   1
    29    33    20   1
    30    22    21  ar
    31    21    41   1
    32    22    42   1
    33    23    43   1
    34    24    44   1
    35    26    25   2
    36    34    26   1
    37    36    27  am
    38    27    39   2
    39    28    38  ar
    40    28    40  ar
    41    29    41   1
    42    42    29   1
    43    43    30   1
    44    44    31   1
    45    32    37   1
    46    37    33   1
    47    37    34   1
    48    35    36   1
    49     1    45   1
    50     2    46   1
    51     3    47   1
    52     4    48   1
    53     5    49   1
    54     6    50   1
    55     7    51   1
    56     8    52   1
    57     9    53   1
    58    10    54   1
    59    11    55   1
    60    12    56   1
    61    13    57   1
    62    14    58   1
    63    25    59   1
    64    25    60   1
    65    26    61   1
    66    29    62   1
    67    29    63   1
    68    30    64   1
    69    30    65   1
    70    30    66   1
    71    31    67   1
    72    31    68   1
    73    31    69   1
    74    32    70   1
    75    32    71   1
    76    33    72   1
    77    33    73   1
    78    34    74   1
    79    34    75   1
    80    35    76   1
    81    36    77   1
    82    37    78   1
@<TRIPOS>SUBSTRUCTURE
     1  O2N      1

