@<TRIPOS>MOLECULE
3zso_ligand_074
    78    82
SMALL
GAST_HUCK
****
This file was generated by PARSER (from files_GN.cpp)

@<TRIPOS>ATOM
      1 C1        -16.4625   43.4950   -4.8706 C.ar        1 O2N      -0.0630
      2 C2        -17.4270   44.2921   -5.4937 C.ar        1 O2N      -0.0640
      3 C3        -15.8870   43.9241   -3.6583 C.ar        1 O2N      -0.0483
      4 C4        -17.8049   45.5146   -4.9281 C.ar        1 O2N      -0.0493
      5 C5        -16.2819   50.8163   -3.6926 C.ar        1 O2N      -0.0712
      6 C6        -12.6079   48.6002   -1.1563 C.ar        1 O2N      -0.0648
      7 C7        -14.5964   48.9994    0.1755 C.ar        1 O2N      -0.0648
      8 C8        -12.0451   45.2339   -1.1830 C.ar        1 O2N      -0.0648
      9 C9        -12.6074   45.3216    1.1795 C.ar        1 O2N      -0.0648
     10 C10       -15.8767   52.1528   -3.5364 C.ar        1 O2N      -0.0449
     11 C11       -12.3718   49.9766   -1.2166 C.ar        1 O2N      -0.0392
     12 C12       -14.3659   50.3764    0.1138 C.ar        1 O2N      -0.0392
     13 C13       -10.9258   44.4433   -0.8846 C.ar        1 O2N      -0.0392
     14 C14       -11.4922   44.5216    1.4777 C.ar        1 O2N      -0.0392
     15 C15       -16.2449   45.1621   -3.0805 C.ar        1 O2N       0.0566
     16 C16       -15.5351   50.8226   -6.0346 C.ar        1 O2N       0.0376
     17 C17       -13.7251   48.0699   -0.4504 C.ar        1 O2N      -0.0192
     18 C18       -12.9069   45.7018   -0.1510 C.ar        1 O2N      -0.0192
     19 C19       -17.1906   46.0105   -3.7429 C.ar        1 O2N       0.0220
     20 C20       -16.1901   50.1477   -4.9455 C.ar        1 O2N      -0.0032
     21 C21       -15.3304   52.8224   -4.6375 C.ar        1 O2N       0.1200
     22 C22       -15.1543   52.1699   -5.8468 C.ar        1 O2N       0.1327
     23 C23       -13.2451   50.8834   -0.5758 C.ar        1 O2N       0.0839
     24 C24       -10.6435   44.0720    0.4449 C.ar        1 O2N       0.0839
     25 C25       -19.6426   50.4780   -5.8925 C.2         1 O2N      -0.1125
     26 C26       -19.1890   50.5559   -4.6096 C.2         1 O2N      -0.0447
     27 C27       -15.7271   45.4332   -1.8284 C.2         1 O2N       0.2037
     28 C28       -15.2171   50.2011   -7.2697 C.2         1 O2N       0.0515
     29 C29       -14.2063   54.1246   -5.9258 C.3         1 O2N       0.1864
     30 C30       -12.2947   52.7797    0.4094 C.3         1 O2N       0.0579
     31 C31        -9.6073   41.9642    0.4318 C.3         1 O2N       0.0579
     32 C32       -17.6493   47.3346   -3.2144 C.3         1 O2N       0.0086
     33 C33       -16.8216   48.7999   -5.1072 C.3         1 O2N       0.0003
     34 C34       -18.9714   49.4021   -3.7672 C.3         1 O2N      -0.0011
     35 C35       -14.0651   46.6142   -0.4378 C.3         1 O2N       0.0982
     36 N36       -14.7415   46.3147   -1.6715 N.am        1 O2N      -0.2653
     37 N37       -18.0014   48.3613   -4.2637 N.4         1 O2N       0.2715
     38 O38       -14.7035   48.9474   -7.3199 O.co2       1 O2N      -0.5668
     39 O39       -16.1438   44.7676   -0.8866 O.2         1 O2N      -0.3883
     40 O40       -15.2412   50.8851   -8.4369 O.co2       1 O2N      -0.5668
     41 O41       -14.9012   54.0948   -4.6679 O.3         1 O2N      -0.2947
     42 O42       -14.5676   52.9964   -6.7404 O.3         1 O2N      -0.2890
     43 O43       -13.0411   52.2258   -0.6885 O.3         1 O2N      -0.3255
     44 O44        -9.5176   43.3629    0.7545 O.3         1 O2N      -0.3255
     45 H1        -16.1954   42.6016   -5.2793 H           1 O2N       0.0572
     46 H2        -17.8775   43.9637   -6.3553 H           1 O2N       0.0635
     47 H3        -15.2099   43.3020   -3.2025 H           1 O2N       0.0651
     48 H4        -18.5428   46.0440   -5.3923 H           1 O2N       0.0570
     49 H5        -16.6920   50.3440   -2.8845 H           1 O2N       0.0445
     50 H6        -11.9646   47.9762   -1.6496 H           1 O2N       0.0534
     51 H7        -15.4288   48.6664    0.6715 H           1 O2N       0.0534
     52 H8        -12.2183   45.4950   -2.1569 H           1 O2N       0.0534
     53 H9        -13.1992   45.6439    1.9511 H           1 O2N       0.0534
     54 H10       -15.9746   52.6354   -2.6408 H           1 O2N       0.0514
     55 H11       -11.5663   50.3364   -1.7397 H           1 O2N       0.0526
     56 H12       -15.0190   51.0252    0.5611 H           1 O2N       0.0526
     57 H13       -10.3035   44.1354   -1.6417 H           1 O2N       0.0526
     58 H14       -11.2881   44.2728    2.4464 H           1 O2N       0.0526
     59 H15       -19.7834   51.3015   -6.4062 H           1 O2N       0.0292
     60 H16       -19.8008   49.6050   -6.3159 H           1 O2N       0.0292
     61 H17       -19.0107   51.4595   -4.2524 H           1 O2N       0.0725
     62 H18       -13.1280   54.1038   -5.7434 H           1 O2N       0.0973
     63 H19       -14.4441   55.0490   -6.4549 H           1 O2N       0.0973
     64 H20       -12.1562   53.8446    0.2219 H           1 O2N       0.0575
     65 H21       -11.3076   52.3173    0.4956 H           1 O2N       0.0575
     66 H22       -12.8353   52.6667    1.3526 H           1 O2N       0.0575
     67 H23        -8.6789   41.4835    0.7403 H           1 O2N       0.0575
     68 H24        -9.7285   41.8143   -0.6437 H           1 O2N       0.0575
     69 H25       -10.4318   41.4849    0.9639 H           1 O2N       0.0575
     70 H26       -16.9017   47.7732   -2.5495 H           1 O2N       0.0995
     71 H27       -18.5270   47.1147   -2.6006 H           1 O2N       0.0995
     72 H28       -16.0058   48.0698   -5.0583 H           1 O2N       0.0966
     73 H29       -17.2234   48.7255   -6.1187 H           1 O2N       0.0966
     74 H30       -19.9459   48.9220   -3.6310 H           1 O2N       0.0998
     75 H31       -18.6719   49.7503   -2.7730 H           1 O2N       0.0998
     76 H32       -14.7868   46.4653    0.3729 H           1 O2N       0.0837
     77 H33       -14.4583   46.8023   -2.4606 H           1 O2N       0.1893
     78 H34       -18.5861   47.8487   -4.9267 H           1 O2N       0.2082
@<TRIPOS>BOND
     1     1     2  ar
     2     3     1  ar
     3     4     2  ar
     4    15     3  ar
     5    19     4  ar
     6     5    10  ar
     7    20     5  ar
     8     6    11  ar
     9    17     6  ar
    10     7    12  ar
    11    17     7  ar
    12     8    13  ar
    13    18     8  ar
    14     9    14  ar
    15    18     9  ar
    16    10    21  ar
    17    11    23  ar
    18    12    23  ar
    19    13    24  ar
    20    14    24  ar
    21    15    19  ar
    22    27    15   1
    23    20    16  ar
    24    16    22  ar
    25    16    28   1
    26    35    17   1
    27    35    18   1
    28    19    32   1
    29    33    20   1
    30    22    21  ar
    31    21    41   1
    32    22    42   1
    33    23    43   1
    34    24    44   1
    35    26    25   2
    36    34    26   1
    37    36    27  am
    38    27    39   2
    39    28    38  ar
    40    28    40  ar
    41    29    41   1
    42    42    29   1
    43    43    30   1
    44    44    31   1
    45    32    37   1
    46    37    33   1
    47    37    34   1
    48    35    36   1
    49     1    45   1
    50     2    46   1
    51     3    47   1
    52     4    48   1
    53     5    49   1
    54     6    50   1
    55     7    51   1
    56     8    52   1
    57     9    53   1
    58    10    54   1
    59    11    55   1
    60    12    56   1
    61    13    57   1
    62    14    58   1
    63    25    59   1
    64    25    60   1
    65    26    61   1
    66    29    62   1
    67    29    63   1
    68    30    64   1
    69    30    65   1
    70    30    66   1
    71    31    67   1
    72    31    68   1
    73    31    69   1
    74    32    70   1
    75    32    71   1
    76    33    72   1
    77    33    73   1
    78    34    74   1
    79    34    75   1
    80    35    76   1
    81    36    77   1
    82    37    78   1
@<TRIPOS>SUBSTRUCTURE
     1  O2N      1

