@<TRIPOS>MOLECULE
3zso_ligand_041
    78    82
SMALL
GAST_HUCK
****
This file was generated by PARSER (from files_GN.cpp)

@<TRIPOS>ATOM
      1 C1        -11.0925   47.1857    3.3256 C.ar        1 O2N      -0.0630
      2 C2        -11.2185   48.5566    3.0674 C.ar        1 O2N      -0.0640
      3 C3        -11.3989   46.2533    2.3222 C.ar        1 O2N      -0.0483
      4 C4        -11.6404   48.9921    1.8024 C.ar        1 O2N      -0.0493
      5 C5        -13.2254   51.9620    0.6473 C.ar        1 O2N      -0.0712
      6 C6        -13.1546   45.2359   -3.4820 C.ar        1 O2N      -0.0648
      7 C7        -13.6771   43.3696   -2.0228 C.ar        1 O2N      -0.0648
      8 C8        -10.6100   42.0599   -2.3083 C.ar        1 O2N      -0.0648
      9 C9        -10.2740   42.9787   -0.0902 C.ar        1 O2N      -0.0648
     10 C10       -13.3533   52.8236    1.7548 C.ar        1 O2N      -0.0449
     11 C11       -14.4789   45.2359   -3.9572 C.ar        1 O2N      -0.0392
     12 C12       -15.0038   43.3715   -2.4877 C.ar        1 O2N      -0.0392
     13 C13       -10.1266   40.8132   -1.8666 C.ar        1 O2N      -0.0392
     14 C14        -9.8098   41.7320    0.3574 C.ar        1 O2N      -0.0392
     15 C15       -11.8225   46.6759    1.0363 C.ar        1 O2N       0.0566
     16 C16       -10.9239   52.7239    0.2801 C.ar        1 O2N       0.0376
     17 C17       -12.7284   44.3113   -2.4994 C.ar        1 O2N      -0.0192
     18 C18       -10.7292   43.1599   -1.4204 C.ar        1 O2N      -0.0192
     19 C19       -11.9360   48.0742    0.7626 C.ar        1 O2N       0.0220
     20 C20       -12.0202   51.8924   -0.1079 C.ar        1 O2N      -0.0032
     21 C21       -12.2614   53.6232    2.1190 C.ar        1 O2N       0.1200
     22 C22       -11.0789   53.5725    1.3990 C.ar        1 O2N       0.1327
     23 C23       -15.4168   44.3220   -3.4395 C.ar        1 O2N       0.0839
     24 C24        -9.7156   40.6413   -0.5305 C.ar        1 O2N       0.0839
     25 C25        -8.5057   48.4053   -0.9635 C.2         1 O2N      -0.1125
     26 C26        -9.0947   49.1601   -1.8990 C.2         1 O2N      -0.0447
     27 C27       -12.1050   45.6855    0.1115 C.2         1 O2N       0.2037
     28 C28        -9.6935   52.7661   -0.4106 C.2         1 O2N       0.0515
     29 C29       -10.8152   54.8948    3.0969 C.3         1 O2N       0.1864
     30 C30       -17.5607   45.1693   -3.0508 C.3         1 O2N       0.0579
     31 C31        -7.9460   39.3943    0.4289 C.3         1 O2N       0.0579
     32 C32       -12.3793   48.6568   -0.5406 C.3         1 O2N       0.0086
     33 C33       -11.9668   51.0174   -1.3251 C.3         1 O2N       0.0003
     34 C34       -10.5181   49.1296   -2.2003 C.3         1 O2N      -0.0011
     35 C35       -11.3485   44.4426   -1.9120 C.3         1 O2N       0.0982
     36 N36       -11.3265   45.5279   -0.9554 N.am        1 O2N      -0.2653
     37 N37       -11.3751   49.6565   -1.0671 N.4         1 O2N       0.2715
     38 O38        -9.2033   53.9403   -0.8700 O.co2       1 O2N      -0.5668
     39 O39       -12.9659   44.8641    0.4053 O.2         1 O2N      -0.3883
     40 O40        -8.7991   51.7744   -0.2251 O.co2       1 O2N      -0.5668
     41 O41       -12.2073   54.5279    3.1159 O.3         1 O2N      -0.2947
     42 O42       -10.1676   54.4300    1.9032 O.3         1 O2N      -0.2890
     43 O43       -16.7161   44.3420   -3.8711 O.3         1 O2N      -0.3255
     44 O44        -9.2801   39.4091   -0.1128 O.3         1 O2N      -0.3255
     45 H1        -10.7948   46.8684    4.2499 H           1 O2N       0.0572
     46 H2        -11.0207   49.2360    3.8055 H           1 O2N       0.0635
     47 H3        -11.3075   45.2576    2.5450 H           1 O2N       0.0651
     48 H4        -11.7408   49.9985    1.6513 H           1 O2N       0.0570
     49 H5        -14.0337   51.3883    0.3927 H           1 O2N       0.0445
     50 H6        -12.5047   45.9357   -3.8403 H           1 O2N       0.0534
     51 H7        -13.4243   42.6985   -1.2932 H           1 O2N       0.0534
     52 H8        -10.9024   42.1552   -3.2853 H           1 O2N       0.0534
     53 H9        -10.2836   43.7441    0.5814 H           1 O2N       0.0534
     54 H10       -14.2312   52.8793    2.2758 H           1 O2N       0.0514
     55 H11       -14.7653   45.9189   -4.6626 H           1 O2N       0.0526
     56 H12       -15.6761   42.7040   -2.1045 H           1 O2N       0.0526
     57 H13       -10.0903   40.0251   -2.5164 H           1 O2N       0.0526
     58 H14        -9.5375   41.6229    1.3353 H           1 O2N       0.0526
     59 H15        -7.5254   48.4645   -0.8194 H           1 O2N       0.0292
     60 H16        -9.0248   47.7890   -0.3910 H           1 O2N       0.0292
     61 H17        -8.5123   49.7608   -2.4383 H           1 O2N       0.0725
     62 H18       -10.3155   54.4545    3.9638 H           1 O2N       0.0973
     63 H19       -10.7171   55.9805    3.1550 H           1 O2N       0.0973
     64 H20       -18.5842   45.0870   -3.4186 H           1 O2N       0.0575
     65 H21       -17.2602   46.2187   -3.1081 H           1 O2N       0.0575
     66 H22       -17.5488   44.8431   -2.0071 H           1 O2N       0.0575
     67 H23        -7.6797   38.3613    0.6513 H           1 O2N       0.0575
     68 H24        -7.8881   39.9640    1.3594 H           1 O2N       0.0575
     69 H25        -7.2191   39.7899   -0.2846 H           1 O2N       0.0575
     70 H26       -13.3491   49.1236   -0.3510 H           1 O2N       0.0995
     71 H27       -12.5861   47.8865   -1.2863 H           1 O2N       0.0995
     72 H28       -11.3862   51.5567   -2.0805 H           1 O2N       0.0966
     73 H29       -12.9659   50.8937   -1.7531 H           1 O2N       0.0966
     74 H30       -10.7723   48.1055   -2.4778 H           1 O2N       0.0998
     75 H31       -10.6697   49.7123   -3.1149 H           1 O2N       0.0998
     76 H32       -10.6821   44.7645   -2.7218 H           1 O2N       0.0837
     77 H33       -10.6242   46.1844   -1.0763 H           1 O2N       0.1893
     78 H34       -10.7269   49.8139   -0.2946 H           1 O2N       0.2082
@<TRIPOS>BOND
     1     1     2  ar
     2     3     1  ar
     3     4     2  ar
     4    15     3  ar
     5    19     4  ar
     6     5    10  ar
     7    20     5  ar
     8     6    11  ar
     9    17     6  ar
    10     7    12  ar
    11    17     7  ar
    12     8    13  ar
    13    18     8  ar
    14     9    14  ar
    15    18     9  ar
    16    10    21  ar
    17    11    23  ar
    18    12    23  ar
    19    13    24  ar
    20    14    24  ar
    21    15    19  ar
    22    27    15   1
    23    20    16  ar
    24    16    22  ar
    25    16    28   1
    26    35    17   1
    27    35    18   1
    28    19    32   1
    29    33    20   1
    30    22    21  ar
    31    21    41   1
    32    22    42   1
    33    23    43   1
    34    24    44   1
    35    26    25   2
    36    34    26   1
    37    36    27  am
    38    27    39   2
    39    28    38  ar
    40    28    40  ar
    41    29    41   1
    42    42    29   1
    43    43    30   1
    44    44    31   1
    45    32    37   1
    46    37    33   1
    47    37    34   1
    48    35    36   1
    49     1    45   1
    50     2    46   1
    51     3    47   1
    52     4    48   1
    53     5    49   1
    54     6    50   1
    55     7    51   1
    56     8    52   1
    57     9    53   1
    58    10    54   1
    59    11    55   1
    60    12    56   1
    61    13    57   1
    62    14    58   1
    63    25    59   1
    64    25    60   1
    65    26    61   1
    66    29    62   1
    67    29    63   1
    68    30    64   1
    69    30    65   1
    70    30    66   1
    71    31    67   1
    72    31    68   1
    73    31    69   1
    74    32    70   1
    75    32    71   1
    76    33    72   1
    77    33    73   1
    78    34    74   1
    79    34    75   1
    80    35    76   1
    81    36    77   1
    82    37    78   1
@<TRIPOS>SUBSTRUCTURE
     1  O2N      1

