@<TRIPOS>MOLECULE
3zso_ligand_048
    78    82
SMALL
GAST_HUCK
****
This file was generated by PARSER (from files_GN.cpp)

@<TRIPOS>ATOM
      1 C1         -8.0616   48.0145    1.1657 C.ar        1 O2N      -0.0630
      2 C2         -8.5460   49.3207    1.2318 C.ar        1 O2N      -0.0640
      3 C3         -8.8017   47.0259    0.5009 C.ar        1 O2N      -0.0483
      4 C4         -9.7399   49.6534    0.5811 C.ar        1 O2N      -0.0493
      5 C5        -12.1771   50.2090    3.0556 C.ar        1 O2N      -0.0712
      6 C6        -12.5048   45.1799   -3.4447 C.ar        1 O2N      -0.0648
      7 C7        -13.0174   43.3421   -1.9506 C.ar        1 O2N      -0.0648
      8 C8         -9.6423   42.8695   -0.1679 C.ar        1 O2N      -0.0648
      9 C9        -10.0961   41.7395   -2.2692 C.ar        1 O2N      -0.0648
     10 C10       -11.2093   50.3771    4.0523 C.ar        1 O2N      -0.0449
     11 C11       -13.8617   45.2565   -3.8208 C.ar        1 O2N      -0.0392
     12 C12       -14.3707   43.4002   -2.3370 C.ar        1 O2N      -0.0392
     13 C13        -9.1877   41.6560    0.3809 C.ar        1 O2N      -0.0392
     14 C14        -9.6544   40.5266   -1.7189 C.ar        1 O2N      -0.0392
     15 C15       -10.0238   47.3270   -0.1519 C.ar        1 O2N       0.0566
     16 C16       -11.5673   47.8267    2.8134 C.ar        1 O2N       0.0376
     17 C17       -12.0518   44.2111   -2.5163 C.ar        1 O2N      -0.0192
     18 C18       -10.0870   42.9305   -1.5135 C.ar        1 O2N      -0.0192
     19 C19       -10.5114   48.6778   -0.1028 C.ar        1 O2N       0.0220
     20 C20       -12.3348   48.9613    2.3824 C.ar        1 O2N      -0.0032
     21 C21       -10.4119   49.2832    4.4184 C.ar        1 O2N       0.1200
     22 C22       -10.6003   48.0435    3.8222 C.ar        1 O2N       0.1327
     23 C23       -14.7952   44.3522   -3.2849 C.ar        1 O2N       0.0839
     24 C24        -9.1916   40.4768   -0.3902 C.ar        1 O2N       0.0839
     25 C25       -16.0234   51.5999   -0.6861 C.2         1 O2N      -0.1125
     26 C26       -14.8682   51.1940   -0.1414 C.2         1 O2N      -0.0447
     27 C27       -10.7127   46.2695   -0.7431 C.2         1 O2N       0.2037
     28 C28       -11.7243   46.5142    2.3023 C.2         1 O2N       0.0515
     29 C29        -9.0354   47.8952    5.3380 C.3         1 O2N       0.1864
     30 C30       -16.4191   43.8759   -4.9274 C.3         1 O2N       0.0579
     31 C31        -7.6484   38.6685   -0.4000 C.3         1 O2N       0.0579
     32 C32       -11.7498   49.1615   -0.8002 C.3         1 O2N       0.0086
     33 C33       -13.2929   48.9451    1.2238 C.3         1 O2N       0.0003
     34 C34       -13.9811   50.2523   -0.8047 C.3         1 O2N      -0.0011
     35 C35       -10.5845   44.1946   -2.1602 C.3         1 O2N       0.0982
     36 N36       -10.0841   45.3810   -1.5024 N.am        1 O2N      -0.2653
     37 N37       -12.8245   49.7910    0.0530 N.4         1 O2N       0.2715
     38 O38       -12.9652   45.9816    2.1451 O.co2       1 O2N      -0.5668
     39 O39       -11.8967   46.1446   -0.4825 O.2         1 O2N      -0.3883
     40 O40       -10.6497   45.7066    2.1117 O.co2       1 O2N      -0.5668
     41 O41        -9.4359   49.2759    5.3524 O.3         1 O2N      -0.2947
     42 O42        -9.7542   47.1286    4.3581 O.3         1 O2N      -0.2890
     43 O43       -16.1182   44.4217   -3.6262 O.3         1 O2N      -0.3255
     44 O44        -8.8049   39.3031    0.1933 O.3         1 O2N      -0.3255
     45 H1         -7.2015   47.7709    1.6749 H           1 O2N       0.0572
     46 H2         -8.0262   50.0513    1.7481 H           1 O2N       0.0635
     47 H3         -8.4167   46.0779    0.5110 H           1 O2N       0.0651
     48 H4        -10.0709   50.6206    0.6323 H           1 O2N       0.0570
     49 H5        -12.7339   51.0259    2.7821 H           1 O2N       0.0445
     50 H6        -11.8467   45.8467   -3.8556 H           1 O2N       0.0534
     51 H7        -12.7452   42.6537   -1.2434 H           1 O2N       0.0534
     52 H8         -9.6436   43.7025    0.4254 H           1 O2N       0.0534
     53 H9        -10.4324   41.7549   -3.2348 H           1 O2N       0.0534
     54 H10       -11.0659   51.2867    4.5051 H           1 O2N       0.0514
     55 H11       -14.1683   45.9716   -4.4794 H           1 O2N       0.0526
     56 H12       -15.0441   42.7600   -1.9161 H           1 O2N       0.0526
     57 H13        -8.8743   41.6251    1.3510 H           1 O2N       0.0526
     58 H14        -9.6891   39.6837   -2.2898 H           1 O2N       0.0526
     59 H15       -16.6080   52.2396   -0.1952 H           1 O2N       0.0292
     60 H16       -16.3160   51.2703   -1.5791 H           1 O2N       0.0292
     61 H17       -14.6189   51.5487    0.7541 H           1 O2N       0.0725
     62 H18        -9.2055   47.4655    6.3255 H           1 O2N       0.0973
     63 H19        -7.9704   47.8329    5.1218 H           1 O2N       0.0973
     64 H20       -17.4922   43.9621   -5.0957 H           1 O2N       0.0575
     65 H21       -16.1493   42.8181   -4.9837 H           1 O2N       0.0575
     66 H22       -15.9073   44.4296   -5.7213 H           1 O2N       0.0575
     67 H23        -7.3321   37.8469    0.2380 H           1 O2N       0.0575
     68 H24        -6.8162   39.3703   -0.4946 H           1 O2N       0.0575
     69 H25        -7.9016   38.2636   -1.3874 H           1 O2N       0.0575
     70 H26       -12.1861   48.3708   -1.4070 H           1 O2N       0.0995
     71 H27       -11.4014   49.9176   -1.5162 H           1 O2N       0.0995
     72 H28       -14.2465   49.3224    1.6238 H           1 O2N       0.0966
     73 H29       -13.4957   47.9372    0.8585 H           1 O2N       0.0966
     74 H30       -13.6043   50.7581   -1.6946 H           1 O2N       0.0998
     75 H31       -14.5516   49.3797   -1.1328 H           1 O2N       0.0998
     76 H32       -10.0634   44.2344   -3.1196 H           1 O2N       0.0837
     77 H33        -9.1266   45.5329   -1.6112 H           1 O2N       0.1893
     78 H34       -12.4120   50.6407    0.4400 H           1 O2N       0.2082
@<TRIPOS>BOND
     1     1     2  ar
     2     3     1  ar
     3     4     2  ar
     4    15     3  ar
     5    19     4  ar
     6     5    10  ar
     7    20     5  ar
     8     6    11  ar
     9    17     6  ar
    10     7    12  ar
    11    17     7  ar
    12     8    13  ar
    13    18     8  ar
    14     9    14  ar
    15    18     9  ar
    16    10    21  ar
    17    11    23  ar
    18    12    23  ar
    19    13    24  ar
    20    14    24  ar
    21    15    19  ar
    22    27    15   1
    23    20    16  ar
    24    16    22  ar
    25    16    28   1
    26    35    17   1
    27    35    18   1
    28    19    32   1
    29    33    20   1
    30    22    21  ar
    31    21    41   1
    32    22    42   1
    33    23    43   1
    34    24    44   1
    35    26    25   2
    36    34    26   1
    37    36    27  am
    38    27    39   2
    39    28    38  ar
    40    28    40  ar
    41    29    41   1
    42    42    29   1
    43    43    30   1
    44    44    31   1
    45    32    37   1
    46    37    33   1
    47    37    34   1
    48    35    36   1
    49     1    45   1
    50     2    46   1
    51     3    47   1
    52     4    48   1
    53     5    49   1
    54     6    50   1
    55     7    51   1
    56     8    52   1
    57     9    53   1
    58    10    54   1
    59    11    55   1
    60    12    56   1
    61    13    57   1
    62    14    58   1
    63    25    59   1
    64    25    60   1
    65    26    61   1
    66    29    62   1
    67    29    63   1
    68    30    64   1
    69    30    65   1
    70    30    66   1
    71    31    67   1
    72    31    68   1
    73    31    69   1
    74    32    70   1
    75    32    71   1
    76    33    72   1
    77    33    73   1
    78    34    74   1
    79    34    75   1
    80    35    76   1
    81    36    77   1
    82    37    78   1
@<TRIPOS>SUBSTRUCTURE
     1  O2N      1

