@<TRIPOS>MOLECULE
3zso_ligand_000
    78    82
SMALL
GAST_HUCK
****
This file was generated by PARSER (from files_GN.cpp)

@<TRIPOS>ATOM
      1 C1        -21.1363   49.8343   -1.7657 C.ar        1 O2N      -0.0630
      2 C2        -21.8310   49.5557   -0.5792 C.ar        1 O2N      -0.0640
      3 C3        -20.5282   48.7852   -2.4749 C.ar        1 O2N      -0.0483
      4 C4        -21.9252   48.2316   -0.1166 C.ar        1 O2N      -0.0493
      5 C5        -24.0649   47.2115    2.3783 C.ar        1 O2N      -0.0712
      6 C6        -15.9847   44.3932   -2.7480 C.ar        1 O2N      -0.0648
      7 C7        -15.8832   46.7643   -2.2263 C.ar        1 O2N      -0.0648
      8 C8        -18.1383   47.4765   -5.8068 C.ar        1 O2N      -0.0648
      9 C9        -16.0862   46.1891   -5.7689 C.ar        1 O2N      -0.0648
     10 C10       -23.7254   47.8626    3.5797 C.ar        1 O2N      -0.0449
     11 C11       -14.8369   44.1744   -1.9625 C.ar        1 O2N      -0.0392
     12 C12       -14.7465   46.5413   -1.4189 C.ar        1 O2N      -0.0392
     13 C13       -17.7558   48.0553   -7.0321 C.ar        1 O2N      -0.0392
     14 C14       -15.6931   46.7773   -6.9834 C.ar        1 O2N      -0.0392
     15 C15       -20.5872   47.4411   -2.0140 C.ar        1 O2N       0.0566
     16 C16       -22.6085   45.3357    2.9578 C.ar        1 O2N       0.0376
     17 C17       -16.5215   45.6952   -2.9118 C.ar        1 O2N      -0.0192
     18 C18       -17.2962   46.5593   -5.1237 C.ar        1 O2N      -0.0192
     19 C19       -21.3216   47.1544   -0.8151 C.ar        1 O2N       0.0220
     20 C20       -23.4562   45.9749    2.0063 C.ar        1 O2N      -0.0032
     21 C21       -22.7998   47.2573    4.4403 C.ar        1 O2N       0.1200
     22 C22       -22.2605   46.0185    4.1427 C.ar        1 O2N       0.1327
     23 C23       -14.2279   45.2381   -1.2716 C.ar        1 O2N       0.0839
     24 C24       -16.5248   47.7073   -7.6310 C.ar        1 O2N       0.0839
     25 C25       -23.4719   41.4189   -0.0972 C.2         1 O2N      -0.1125
     26 C26       -23.5327   42.6822   -0.5443 C.2         1 O2N      -0.0447
     27 C27       -19.8766   46.4823   -2.7337 C.2         1 O2N       0.2037
     28 C28       -22.0947   44.0464    2.7583 C.2         1 O2N       0.0515
     29 C29       -21.5742   46.6394    6.0984 C.3         1 O2N       0.1864
     30 C30       -13.0069   45.6132    0.7376 C.3         1 O2N       0.0579
     31 C31       -17.0339   48.5295   -9.8218 C.3         1 O2N       0.0579
     32 C32       -21.3462   45.8075   -0.1408 C.3         1 O2N       0.0086
     33 C33       -23.7702   45.3685    0.6674 C.3         1 O2N       0.0003
     34 C34       -22.3832   43.5799   -0.5772 C.3         1 O2N      -0.0011
     35 C35       -17.6911   45.9348   -3.8152 C.3         1 O2N       0.0982
     36 N36       -18.6186   46.7410   -3.0657 N.am        1 O2N      -0.2653
     37 N37       -22.6455   45.0382   -0.3071 N.4         1 O2N       0.2715
     38 O38       -20.8565   43.9086    2.2391 O.co2       1 O2N      -0.5668
     39 O39       -20.4165   45.4230   -3.0212 O.2         1 O2N      -0.3883
     40 O40       -22.6507   43.0075    3.4282 O.co2       1 O2N      -0.5668
     41 O41       -22.3570   47.7431    5.6133 O.3         1 O2N      -0.2947
     42 O42       -21.4239   45.6041    5.1116 O.3         1 O2N      -0.2890
     43 O43       -13.0799   44.9900   -0.5573 O.3         1 O2N      -0.3255
     44 O44       -16.0582   48.2587   -8.8002 O.3         1 O2N      -0.3255
     45 H1        -21.0498   50.8016   -2.0930 H           1 O2N       0.0572
     46 H2        -22.2407   50.3203   -0.0345 H           1 O2N       0.0635
     47 H3        -20.0258   49.0236   -3.3315 H           1 O2N       0.0651
     48 H4        -22.4067   48.0717    0.7736 H           1 O2N       0.0570
     49 H5        -24.7319   47.6668    1.7524 H           1 O2N       0.0445
     50 H6        -16.4021   43.5968   -3.2327 H           1 O2N       0.0534
     51 H7        -16.2311   47.7182   -2.3275 H           1 O2N       0.0534
     52 H8        -19.0517   47.7248   -5.4291 H           1 O2N       0.0534
     53 H9        -15.4670   45.4920   -5.3528 H           1 O2N       0.0534
     54 H10       -24.1381   48.7661    3.8197 H           1 O2N       0.0514
     55 H11       -14.4440   43.2337   -1.8989 H           1 O2N       0.0526
     56 H12       -14.2975   47.3287   -0.9474 H           1 O2N       0.0526
     57 H13       -18.3796   48.7254   -7.4888 H           1 O2N       0.0526
     58 H14       -14.7970   46.5205   -7.4022 H           1 O2N       0.0526
     59 H15       -24.2721   40.8295   -0.1377 H           1 O2N       0.0292
     60 H16       -22.6229   41.0311    0.2507 H           1 O2N       0.0292
     61 H17       -24.4053   43.0114   -0.9082 H           1 O2N       0.0725
     62 H18       -22.0574   46.2188    6.9822 H           1 O2N       0.0973
     63 H19       -20.5885   47.0053    6.3849 H           1 O2N       0.0973
     64 H20       -12.1290   45.2156    1.2522 H           1 O2N       0.0575
     65 H21       -13.8838   45.3910    1.3527 H           1 O2N       0.0575
     66 H22       -12.8952   46.6972    0.6421 H           1 O2N       0.0575
     67 H23       -16.4989   48.7731  -10.7407 H           1 O2N       0.0575
     68 H24       -17.6562   49.3847   -9.5490 H           1 O2N       0.0575
     69 H25       -17.6693   47.6624  -10.0205 H           1 O2N       0.0575
     70 H26       -21.1151   45.9292    0.9232 H           1 O2N       0.0995
     71 H27       -20.4993   45.2248   -0.5226 H           1 O2N       0.0995
     72 H28       -24.4278   46.0469    0.1141 H           1 O2N       0.0966
     73 H29       -24.3856   44.4838    0.8713 H           1 O2N       0.0966
     74 H30       -22.0188   43.5081   -1.6072 H           1 O2N       0.0998
     75 H31       -21.5810   43.2162    0.0829 H           1 O2N       0.0998
     76 H32       -18.1604   44.9784   -4.0772 H           1 O2N       0.0837
     77 H33       -18.2770   47.5963   -2.7620 H           1 O2N       0.1893
     78 H34       -23.0167   45.3665   -1.2045 H           1 O2N       0.2082
@<TRIPOS>BOND
     1     1     2  ar
     2     3     1  ar
     3     4     2  ar
     4    15     3  ar
     5    19     4  ar
     6     5    10  ar
     7    20     5  ar
     8     6    11  ar
     9    17     6  ar
    10     7    12  ar
    11    17     7  ar
    12     8    13  ar
    13    18     8  ar
    14     9    14  ar
    15    18     9  ar
    16    10    21  ar
    17    11    23  ar
    18    12    23  ar
    19    13    24  ar
    20    14    24  ar
    21    15    19  ar
    22    27    15   1
    23    20    16  ar
    24    16    22  ar
    25    16    28   1
    26    35    17   1
    27    35    18   1
    28    19    32   1
    29    33    20   1
    30    22    21  ar
    31    21    41   1
    32    22    42   1
    33    23    43   1
    34    24    44   1
    35    26    25   2
    36    34    26   1
    37    36    27  am
    38    27    39   2
    39    28    38  ar
    40    28    40  ar
    41    29    41   1
    42    42    29   1
    43    43    30   1
    44    44    31   1
    45    32    37   1
    46    37    33   1
    47    37    34   1
    48    35    36   1
    49     1    45   1
    50     2    46   1
    51     3    47   1
    52     4    48   1
    53     5    49   1
    54     6    50   1
    55     7    51   1
    56     8    52   1
    57     9    53   1
    58    10    54   1
    59    11    55   1
    60    12    56   1
    61    13    57   1
    62    14    58   1
    63    25    59   1
    64    25    60   1
    65    26    61   1
    66    29    62   1
    67    29    63   1
    68    30    64   1
    69    30    65   1
    70    30    66   1
    71    31    67   1
    72    31    68   1
    73    31    69   1
    74    32    70   1
    75    32    71   1
    76    33    72   1
    77    33    73   1
    78    34    74   1
    79    34    75   1
    80    35    76   1
    81    36    77   1
    82    37    78   1
@<TRIPOS>SUBSTRUCTURE
     1  O2N      1

