@<TRIPOS>MOLECULE
3zso_ligand_028
    78    82
SMALL
GAST_HUCK
****
This file was generated by PARSER (from files_GN.cpp)

@<TRIPOS>ATOM
      1 C1        -21.4990   51.5710    0.5403 C.ar        1 O2N      -0.0630
      2 C2        -21.0025   52.6920   -0.1380 C.ar        1 O2N      -0.0640
      3 C3        -21.6941   50.3627   -0.1512 C.ar        1 O2N      -0.0483
      4 C4        -20.6912   52.5988   -1.5045 C.ar        1 O2N      -0.0493
      5 C5        -17.6772   50.3908   -6.7613 C.ar        1 O2N      -0.0712
      6 C6        -21.3661   46.0310    0.3336 C.ar        1 O2N      -0.0648
      7 C7        -21.8276   44.2729   -1.2685 C.ar        1 O2N      -0.0648
      8 C8        -18.9658   45.6260   -2.5970 C.ar        1 O2N      -0.0648
      9 C9        -20.3171   46.3095   -4.4929 C.ar        1 O2N      -0.0648
     10 C10       -16.6678   49.6581   -7.4084 C.ar        1 O2N      -0.0449
     11 C11       -21.4254   45.0974    1.3827 C.ar        1 O2N      -0.0392
     12 C12       -21.8898   43.3335   -0.2205 C.ar        1 O2N      -0.0392
     13 C13       -17.9526   45.1924   -3.4731 C.ar        1 O2N      -0.0392
     14 C14       -19.2894   45.9133   -5.3685 C.ar        1 O2N      -0.0392
     15 C15       -21.3976   50.2504   -1.5332 C.ar        1 O2N       0.0566
     16 C16       -16.0015   51.8636   -5.7320 C.ar        1 O2N       0.0376
     17 C17       -21.5182   45.6344   -1.0200 C.ar        1 O2N      -0.0192
     18 C18       -20.1816   46.1645   -3.0885 C.ar        1 O2N      -0.0192
     19 C19       -20.8674   51.3868   -2.2187 C.ar        1 O2N       0.0220
     20 C20       -17.3746   51.4848   -5.9005 C.ar        1 O2N      -0.0032
     21 C21       -15.3354   50.0231   -7.2010 C.ar        1 O2N       0.1200
     22 C22       -15.0077   51.0992   -6.3914 C.ar        1 O2N       0.1327
     23 C23       -21.6811   43.7404    1.1090 C.ar        1 O2N       0.0839
     24 C24       -18.1001   45.3486   -4.8663 C.ar        1 O2N       0.0839
     25 C25       -17.0348   48.3777   -3.3502 C.2         1 O2N      -0.1125
     26 C26       -17.9125   49.3008   -3.7622 C.2         1 O2N      -0.0447
     27 C27       -21.6770   49.0374   -2.1544 C.2         1 O2N       0.2037
     28 C28       -15.5744   52.9535   -4.9348 C.2         1 O2N       0.0515
     29 C29       -13.2072   50.3245   -7.3445 C.3         1 O2N       0.1864
     30 C30       -22.8497   42.6690    2.8466 C.3         1 O2N       0.0579
     31 C31       -16.0076   45.7442   -5.9161 C.3         1 O2N       0.0579
     32 C32       -20.3770   51.3592   -3.6319 C.3         1 O2N       0.0086
     33 C33       -18.5260   52.1194   -5.1674 C.3         1 O2N       0.0003
     34 C34       -18.0116   50.6048   -3.1263 C.3         1 O2N      -0.0011
     35 C35       -21.3052   46.5732   -2.1791 C.3         1 O2N       0.0982
     36 N36       -21.0402   47.9336   -1.7797 N.am        1 O2N      -0.2653
     37 N37       -18.9006   51.6352   -3.7782 N.4         1 O2N       0.2715
     38 O38       -15.9651   54.2192   -5.1958 O.co2       1 O2N      -0.5668
     39 O39       -22.5544   49.0119   -3.0075 O.2         1 O2N      -0.3883
     40 O40       -14.6350   52.7873   -3.9734 O.co2       1 O2N      -0.5668
     41 O41       -14.2545   49.4215   -7.7315 O.3         1 O2N      -0.2947
     42 O42       -13.6705   51.2964   -6.3905 O.3         1 O2N      -0.2890
     43 O43       -21.6282   42.8068    2.1056 O.3         1 O2N      -0.3255
     44 O44       -17.1599   44.8960   -5.7565 O.3         1 O2N      -0.3255
     45 H1        -21.7330   51.6386    1.5337 H           1 O2N       0.0572
     46 H2        -20.8609   53.5727    0.3630 H           1 O2N       0.0635
     47 H3        -22.0784   49.5686    0.3693 H           1 O2N       0.0651
     48 H4        -20.3133   53.4280   -1.9708 H           1 O2N       0.0570
     49 H5        -18.6442   50.0925   -6.9068 H           1 O2N       0.0445
     50 H6        -21.1770   47.0026    0.5731 H           1 O2N       0.0534
     51 H7        -21.9631   43.9425   -2.2258 H           1 O2N       0.0534
     52 H8        -18.8145   45.5193   -1.5920 H           1 O2N       0.0534
     53 H9        -21.1709   46.7076   -4.8904 H           1 O2N       0.0534
     54 H10       -16.8992   48.8713   -8.0190 H           1 O2N       0.0514
     55 H11       -21.2605   45.4036    2.3440 H           1 O2N       0.0526
     56 H12       -22.0614   42.3479   -0.4301 H           1 O2N       0.0526
     57 H13       -17.1067   44.7641   -3.0916 H           1 O2N       0.0526
     58 H14       -19.4136   46.0196   -6.3782 H           1 O2N       0.0526
     59 H15       -16.9493   47.5177   -3.8379 H           1 O2N       0.0292
     60 H16       -16.4327   48.5436   -2.5745 H           1 O2N       0.0292
     61 H17       -18.4821   49.1024   -4.5538 H           1 O2N       0.0725
     62 H18       -12.8368   50.8406   -8.2342 H           1 O2N       0.0973
     63 H19       -12.3841   49.7556   -6.9093 H           1 O2N       0.0973
     64 H20       -22.7236   41.8605    3.5675 H           1 O2N       0.0575
     65 H21       -23.6871   42.4137    2.1922 H           1 O2N       0.0575
     66 H22       -23.0758   43.5846    3.3975 H           1 O2N       0.0575
     67 H23       -15.4088   45.3508   -6.7372 H           1 O2N       0.0575
     68 H24       -15.3884   45.7390   -5.0160 H           1 O2N       0.0575
     69 H25       -16.2849   46.7722   -6.1622 H           1 O2N       0.0575
     70 H26       -20.9400   52.1301   -4.1648 H           1 O2N       0.0995
     71 H27       -20.6040   50.4167   -4.1298 H           1 O2N       0.0995
     72 H28       -19.4043   52.0741   -5.8196 H           1 O2N       0.0966
     73 H29       -18.3313   53.1869   -5.0878 H           1 O2N       0.0966
     74 H30       -17.0104   51.0282   -3.0495 H           1 O2N       0.0998
     75 H31       -18.3252   50.4429   -2.0902 H           1 O2N       0.0998
     76 H32       -22.2408   46.5321   -2.7463 H           1 O2N       0.0837
     77 H33       -20.3191   48.0515   -1.1425 H           1 O2N       0.1893
     78 H34       -18.7505   52.4597   -3.1926 H           1 O2N       0.2082
@<TRIPOS>BOND
     1     1     2  ar
     2     3     1  ar
     3     4     2  ar
     4    15     3  ar
     5    19     4  ar
     6     5    10  ar
     7    20     5  ar
     8     6    11  ar
     9    17     6  ar
    10     7    12  ar
    11    17     7  ar
    12     8    13  ar
    13    18     8  ar
    14     9    14  ar
    15    18     9  ar
    16    10    21  ar
    17    11    23  ar
    18    12    23  ar
    19    13    24  ar
    20    14    24  ar
    21    15    19  ar
    22    27    15   1
    23    20    16  ar
    24    16    22  ar
    25    16    28   1
    26    35    17   1
    27    35    18   1
    28    19    32   1
    29    33    20   1
    30    22    21  ar
    31    21    41   1
    32    22    42   1
    33    23    43   1
    34    24    44   1
    35    26    25   2
    36    34    26   1
    37    36    27  am
    38    27    39   2
    39    28    38  ar
    40    28    40  ar
    41    29    41   1
    42    42    29   1
    43    43    30   1
    44    44    31   1
    45    32    37   1
    46    37    33   1
    47    37    34   1
    48    35    36   1
    49     1    45   1
    50     2    46   1
    51     3    47   1
    52     4    48   1
    53     5    49   1
    54     6    50   1
    55     7    51   1
    56     8    52   1
    57     9    53   1
    58    10    54   1
    59    11    55   1
    60    12    56   1
    61    13    57   1
    62    14    58   1
    63    25    59   1
    64    25    60   1
    65    26    61   1
    66    29    62   1
    67    29    63   1
    68    30    64   1
    69    30    65   1
    70    30    66   1
    71    31    67   1
    72    31    68   1
    73    31    69   1
    74    32    70   1
    75    32    71   1
    76    33    72   1
    77    33    73   1
    78    34    74   1
    79    34    75   1
    80    35    76   1
    81    36    77   1
    82    37    78   1
@<TRIPOS>SUBSTRUCTURE
     1  O2N      1

