@<TRIPOS>MOLECULE
3zso_ligand_012
    78    82
SMALL
GAST_HUCK
****
This file was generated by PARSER (from files_GN.cpp)

@<TRIPOS>ATOM
      1 C1        -14.0580   43.8432   -3.4165 C.ar        1 O2N      -0.0630
      2 C2        -14.8420   44.3059   -4.4796 C.ar        1 O2N      -0.0640
      3 C3        -14.0959   44.5002   -2.1767 C.ar        1 O2N      -0.0483
      4 C4        -15.6921   45.4100   -4.2897 C.ar        1 O2N      -0.0493
      5 C5        -17.2819   47.8477   -6.5427 C.ar        1 O2N      -0.0712
      6 C6        -12.8452   50.1908   -0.8260 C.ar        1 O2N      -0.0648
      7 C7        -15.1480   50.8620   -0.4215 C.ar        1 O2N      -0.0648
      8 C8        -12.5852   47.0443    1.3148 C.ar        1 O2N      -0.0648
      9 C9        -13.1022   49.1842    2.3318 C.ar        1 O2N      -0.0648
     10 C10       -16.2440   48.0749   -7.4656 C.ar        1 O2N      -0.0449
     11 C11       -12.5507   51.4817   -1.3006 C.ar        1 O2N      -0.0392
     12 C12       -14.8609   52.1514   -0.9071 C.ar        1 O2N      -0.0392
     13 C13       -11.6328   46.7968    2.3191 C.ar        1 O2N      -0.0392
     14 C14       -12.1075   48.9635    3.2984 C.ar        1 O2N      -0.0392
     15 C15       -14.9451   45.6163   -1.9692 C.ar        1 O2N       0.0566
     16 C16       -16.6379   49.8599   -5.2647 C.ar        1 O2N       0.0376
     17 C17       -14.1444   49.8650   -0.3517 C.ar        1 O2N      -0.0192
     18 C18       -13.3724   48.2248    1.3172 C.ar        1 O2N      -0.0192
     19 C19       -15.7862   46.0658   -3.0336 C.ar        1 O2N       0.0220
     20 C20       -17.4837   48.7072   -5.4265 C.ar        1 O2N      -0.0032
     21 C21       -15.3914   49.1715   -7.2612 C.ar        1 O2N       0.1200
     22 C22       -15.5863   50.0408   -6.2004 C.ar        1 O2N       0.1327
     23 C23       -13.5578   52.4679   -1.3421 C.ar        1 O2N       0.0839
     24 C24       -11.3818   47.7470    3.3286 C.ar        1 O2N       0.0839
     25 C25       -19.7998   44.9411   -1.0249 C.2         1 O2N      -0.1125
     26 C26       -18.9111   45.4048   -1.9154 C.2         1 O2N      -0.0447
     27 C27       -14.8231   46.3022   -0.7749 C.2         1 O2N       0.2037
     28 C28       -16.7528   50.7855   -4.1852 C.2         1 O2N       0.0515
     29 C29       -13.7356   50.5467   -7.2101 C.3         1 O2N       0.1864
     30 C30       -13.1508   53.9153   -3.1542 C.3         1 O2N       0.0579
     31 C31       -10.6163   47.7957    5.6146 C.3         1 O2N       0.0579
     32 C32       -16.7363   47.2125   -2.9218 C.3         1 O2N       0.0086
     33 C33       -18.4898   48.2553   -4.4147 C.3         1 O2N       0.0003
     34 C34       -19.1809   46.5605   -2.7514 C.3         1 O2N      -0.0011
     35 C35       -14.4101   48.5273    0.2690 C.3         1 O2N       0.0982
     36 N36       -14.5676   47.6016   -0.8178 N.am        1 O2N      -0.2653
     37 N37       -18.0611   47.0281   -3.6436 N.4         1 O2N       0.2715
     38 O38       -15.6819   51.4842   -3.7381 O.co2       1 O2N      -0.5668
     39 O39       -14.9150   45.6880    0.2908 O.2         1 O2N      -0.3883
     40 O40       -17.9686   51.2024   -3.7522 O.co2       1 O2N      -0.5668
     41 O41       -14.3255   49.5060   -8.0080 O.3         1 O2N      -0.2947
     42 O42       -14.6579   51.0253   -6.2169 O.3         1 O2N      -0.2890
     43 O43       -13.2472   53.7426   -1.7321 O.3         1 O2N      -0.3255
     44 O44       -10.3987   47.4512    4.2375 O.3         1 O2N      -0.3255
     45 H1        -13.4205   43.0585   -3.5533 H           1 O2N       0.0572
     46 H2        -14.7982   43.8447   -5.3935 H           1 O2N       0.0635
     47 H3        -13.4669   44.1666   -1.4391 H           1 O2N       0.0651
     48 H4        -16.2295   45.7401   -5.0917 H           1 O2N       0.0570
     49 H5        -17.8646   47.0131   -6.6698 H           1 O2N       0.0445
     50 H6        -12.0978   49.4922   -0.7980 H           1 O2N       0.0534
     51 H7        -16.0986   50.6580   -0.1080 H           1 O2N       0.0534
     52 H8        -12.6902   46.3332    0.5820 H           1 O2N       0.0534
     53 H9        -13.6317   50.0593    2.3567 H           1 O2N       0.0534
     54 H10       -16.0936   47.4362   -8.2435 H           1 O2N       0.0514
     55 H11       -11.5981   51.7059   -1.5992 H           1 O2N       0.0526
     56 H12       -15.5925   52.8648   -0.9232 H           1 O2N       0.0526
     57 H13       -11.0981   45.9231    2.2994 H           1 O2N       0.0526
     58 H14       -11.9190   49.6916    3.9816 H           1 O2N       0.0526
     59 H15       -19.5720   44.1636   -0.4483 H           1 O2N       0.0292
     60 H16       -20.7012   45.3626   -0.9268 H           1 O2N       0.0292
     61 H17       -18.0409   44.9301   -1.9957 H           1 O2N       0.0725
     62 H18       -13.4331   51.3725   -7.8569 H           1 O2N       0.0973
     63 H19       -12.8451   50.1561   -6.7066 H           1 O2N       0.0973
     64 H20       -12.8292   54.9385   -3.3518 H           1 O2N       0.0575
     65 H21       -14.1222   53.7657   -3.6363 H           1 O2N       0.0575
     66 H22       -12.4126   53.2360   -3.5977 H           1 O2N       0.0575
     67 H23        -9.8760   47.2642    6.2136 H           1 O2N       0.0575
     68 H24       -11.6147   47.5120    5.9659 H           1 O2N       0.0575
     69 H25       -10.4716   48.8683    5.7695 H           1 O2N       0.0575
     70 H26       -16.1687   48.0473   -3.3172 H           1 O2N       0.0995
     71 H27       -16.9369   47.4729   -1.8871 H           1 O2N       0.0995
     72 H28       -19.4150   48.0416   -4.9646 H           1 O2N       0.0966
     73 H29       -18.7420   49.0464   -3.6991 H           1 O2N       0.0966
     74 H30       -19.5078   47.3848   -2.1084 H           1 O2N       0.0998
     75 H31       -20.0329   46.2835   -3.3822 H           1 O2N       0.0998
     76 H32       -15.3794   48.5509    0.7807 H           1 O2N       0.0837
     77 H33       -14.5352   47.9944   -1.7128 H           1 O2N       0.1893
     78 H34       -17.9317   46.2993   -4.3434 H           1 O2N       0.2082
@<TRIPOS>BOND
     1     1     2  ar
     2     3     1  ar
     3     4     2  ar
     4    15     3  ar
     5    19     4  ar
     6     5    10  ar
     7    20     5  ar
     8     6    11  ar
     9    17     6  ar
    10     7    12  ar
    11    17     7  ar
    12     8    13  ar
    13    18     8  ar
    14     9    14  ar
    15    18     9  ar
    16    10    21  ar
    17    11    23  ar
    18    12    23  ar
    19    13    24  ar
    20    14    24  ar
    21    15    19  ar
    22    27    15   1
    23    20    16  ar
    24    16    22  ar
    25    16    28   1
    26    35    17   1
    27    35    18   1
    28    19    32   1
    29    33    20   1
    30    22    21  ar
    31    21    41   1
    32    22    42   1
    33    23    43   1
    34    24    44   1
    35    26    25   2
    36    34    26   1
    37    36    27  am
    38    27    39   2
    39    28    38  ar
    40    28    40  ar
    41    29    41   1
    42    42    29   1
    43    43    30   1
    44    44    31   1
    45    32    37   1
    46    37    33   1
    47    37    34   1
    48    35    36   1
    49     1    45   1
    50     2    46   1
    51     3    47   1
    52     4    48   1
    53     5    49   1
    54     6    50   1
    55     7    51   1
    56     8    52   1
    57     9    53   1
    58    10    54   1
    59    11    55   1
    60    12    56   1
    61    13    57   1
    62    14    58   1
    63    25    59   1
    64    25    60   1
    65    26    61   1
    66    29    62   1
    67    29    63   1
    68    30    64   1
    69    30    65   1
    70    30    66   1
    71    31    67   1
    72    31    68   1
    73    31    69   1
    74    32    70   1
    75    32    71   1
    76    33    72   1
    77    33    73   1
    78    34    74   1
    79    34    75   1
    80    35    76   1
    81    36    77   1
    82    37    78   1
@<TRIPOS>SUBSTRUCTURE
     1  O2N      1

