@<TRIPOS>MOLECULE
3zso_ligand_092
    78    82
SMALL
GAST_HUCK
****
This file was generated by PARSER (from files_GN.cpp)

@<TRIPOS>ATOM
      1 C1        -18.7898   44.0596   -6.5143 C.ar        1 O2N      -0.0630
      2 C2        -17.8428   43.1781   -5.9726 C.ar        1 O2N      -0.0640
      3 C3        -19.1133   45.2504   -5.8416 C.ar        1 O2N      -0.0483
      4 C4        -17.2096   43.4997   -4.7640 C.ar        1 O2N      -0.0493
      5 C5        -12.3784   44.7081   -2.1806 C.ar        1 O2N      -0.0712
      6 C6        -18.8736   50.0703   -4.4143 C.ar        1 O2N      -0.0648
      7 C7        -19.4849   50.3666   -2.0905 C.ar        1 O2N      -0.0648
      8 C8        -22.7524   48.7280   -2.1197 C.ar        1 O2N      -0.0648
      9 C9        -20.9377   47.3678   -1.2451 C.ar        1 O2N      -0.0648
     10 C10       -10.9972   44.5953   -1.9343 C.ar        1 O2N      -0.0449
     11 C11       -17.8499   51.0261   -4.2681 C.ar        1 O2N      -0.0392
     12 C12       -18.4698   51.3266   -1.9420 C.ar        1 O2N      -0.0392
     13 C13       -23.4991   48.4840   -0.9538 C.ar        1 O2N      -0.0392
     14 C14       -21.6927   47.1061   -0.0862 C.ar        1 O2N      -0.0392
     15 C15       -18.4933   45.6003   -4.6104 C.ar        1 O2N       0.0566
     16 C16       -12.7273   45.6573    0.0574 C.ar        1 O2N       0.0376
     17 C17       -19.6774   49.6743   -3.3153 C.ar        1 O2N      -0.0192
     18 C18       -21.4576   48.1777   -2.2867 C.ar        1 O2N      -0.0192
     19 C19       -17.5131   44.7022   -4.0718 C.ar        1 O2N       0.0220
     20 C20       -13.2624   45.2628   -1.2137 C.ar        1 O2N      -0.0032
     21 C21       -10.4948   45.0022   -0.6923 C.ar        1 O2N       0.1200
     22 C22       -11.3389   45.5121    0.2805 C.ar        1 O2N       0.1327
     23 C23       -17.6294   51.6445   -3.0244 C.ar        1 O2N       0.0839
     24 C24       -22.9763   47.6625    0.0643 C.ar        1 O2N       0.0839
     25 C25       -15.4019   46.1596   -6.3534 C.2         1 O2N      -0.1125
     26 C26       -14.9984   45.4522   -5.2934 C.2         1 O2N      -0.0447
     27 C27       -18.8379   46.8324   -4.0401 C.2         1 O2N       0.2037
     28 C28       -13.5149   46.1738    1.1194 C.2         1 O2N       0.0515
     29 C29        -9.3601   45.2481    1.1258 C.3         1 O2N       0.1864
     30 C30       -16.8623   53.8747   -3.0381 C.3         1 O2N       0.0579
     31 C31       -24.6903   46.4921    1.1833 C.3         1 O2N       0.0579
     32 C32       -16.7816   44.9102   -2.7822 C.3         1 O2N       0.0086
     33 C33       -14.7185   45.4549   -1.5202 C.3         1 O2N       0.0003
     34 C34       -14.8079   46.0035   -3.9611 C.3         1 O2N      -0.0011
     35 C35       -20.6368   48.5214   -3.4965 C.3         1 O2N       0.0982
     36 N36       -20.0921   47.2893   -4.0356 N.am        1 O2N      -0.2653
     37 N37       -15.2827   45.0763   -2.8715 N.4         1 O2N       0.2715
     38 O38       -14.5595   45.4684    1.6076 O.co2       1 O2N      -0.5668
     39 O39       -17.9461   47.5237   -3.5719 O.2         1 O2N      -0.3883
     40 O40       -13.0916   47.2250    1.8624 O.co2       1 O2N      -0.5668
     41 O41        -9.2142   44.9592   -0.2770 O.3         1 O2N      -0.2947
     42 O42       -10.6548   45.8045    1.4073 O.3         1 O2N      -0.2890
     43 O43       -16.5601   52.4823   -2.8513 O.3         1 O2N      -0.3255
     44 O44       -23.6542   47.4863    1.2396 O.3         1 O2N      -0.3255
     45 H1        -19.2536   43.8292   -7.3953 H           1 O2N       0.0572
     46 H2        -17.6196   42.3037   -6.4535 H           1 O2N       0.0635
     47 H3        -19.8067   45.8684   -6.2745 H           1 O2N       0.0651
     48 H4        -16.5331   42.8315   -4.3815 H           1 O2N       0.0570
     49 H5        -12.7241   44.3852   -3.0853 H           1 O2N       0.0445
     50 H6        -18.9863   49.6117   -5.3232 H           1 O2N       0.0534
     51 H7        -20.0577   50.1517   -1.2723 H           1 O2N       0.0534
     52 H8        -23.1506   49.3408   -2.8355 H           1 O2N       0.0534
     53 H9        -19.9965   46.9763   -1.3149 H           1 O2N       0.0534
     54 H10       -10.3716   44.2202   -2.6507 H           1 O2N       0.0514
     55 H11       -17.2429   51.2430   -5.0608 H           1 O2N       0.0526
     56 H12       -18.3334   51.7846   -1.0396 H           1 O2N       0.0526
     57 H13       -24.4168   48.9227   -0.8418 H           1 O2N       0.0526
     58 H14       -21.2956   46.5296    0.6584 H           1 O2N       0.0526
     59 H15       -15.5122   45.7142   -7.2333 H           1 O2N       0.0292
     60 H16       -15.5793   47.1351   -6.2920 H           1 O2N       0.0292
     61 H17       -14.7913   44.4883   -5.4288 H           1 O2N       0.0725
     62 H18        -8.5891   45.9533    1.4417 H           1 O2N       0.0973
     63 H19        -9.2309   44.3248    1.6982 H           1 O2N       0.0973
     64 H20       -15.9441   54.4456   -2.8849 H           1 O2N       0.0575
     65 H21       -17.6027   54.2222   -2.3135 H           1 O2N       0.0575
     66 H22       -17.2201   54.0721   -4.0515 H           1 O2N       0.0575
     67 H23       -25.1455   46.4266    2.1726 H           1 O2N       0.0575
     68 H24       -24.2887   45.5087    0.9259 H           1 O2N       0.0575
     69 H25       -25.4680   46.7694    0.4674 H           1 O2N       0.0575
     70 H26       -16.9829   44.0289   -2.1670 H           1 O2N       0.0995
     71 H27       -17.2119   45.7359   -2.2189 H           1 O2N       0.0995
     72 H28       -14.9557   46.5103   -1.3437 H           1 O2N       0.0966
     73 H29       -15.2447   44.8786   -0.7582 H           1 O2N       0.0966
     74 H30       -15.2874   46.9811   -3.8605 H           1 O2N       0.0998
     75 H31       -13.7345   46.1753   -3.8771 H           1 O2N       0.0998
     76 H32       -21.3317   48.8600   -4.2738 H           1 O2N       0.0837
     77 H33       -20.7589   46.6698   -4.3699 H           1 O2N       0.1893
     78 H34       -14.9145   44.1477   -3.0899 H           1 O2N       0.2082
@<TRIPOS>BOND
     1     1     2  ar
     2     3     1  ar
     3     4     2  ar
     4    15     3  ar
     5    19     4  ar
     6     5    10  ar
     7    20     5  ar
     8     6    11  ar
     9    17     6  ar
    10     7    12  ar
    11    17     7  ar
    12     8    13  ar
    13    18     8  ar
    14     9    14  ar
    15    18     9  ar
    16    10    21  ar
    17    11    23  ar
    18    12    23  ar
    19    13    24  ar
    20    14    24  ar
    21    15    19  ar
    22    27    15   1
    23    20    16  ar
    24    16    22  ar
    25    16    28   1
    26    35    17   1
    27    35    18   1
    28    19    32   1
    29    33    20   1
    30    22    21  ar
    31    21    41   1
    32    22    42   1
    33    23    43   1
    34    24    44   1
    35    26    25   2
    36    34    26   1
    37    36    27  am
    38    27    39   2
    39    28    38  ar
    40    28    40  ar
    41    29    41   1
    42    42    29   1
    43    43    30   1
    44    44    31   1
    45    32    37   1
    46    37    33   1
    47    37    34   1
    48    35    36   1
    49     1    45   1
    50     2    46   1
    51     3    47   1
    52     4    48   1
    53     5    49   1
    54     6    50   1
    55     7    51   1
    56     8    52   1
    57     9    53   1
    58    10    54   1
    59    11    55   1
    60    12    56   1
    61    13    57   1
    62    14    58   1
    63    25    59   1
    64    25    60   1
    65    26    61   1
    66    29    62   1
    67    29    63   1
    68    30    64   1
    69    30    65   1
    70    30    66   1
    71    31    67   1
    72    31    68   1
    73    31    69   1
    74    32    70   1
    75    32    71   1
    76    33    72   1
    77    33    73   1
    78    34    74   1
    79    34    75   1
    80    35    76   1
    81    36    77   1
    82    37    78   1
@<TRIPOS>SUBSTRUCTURE
     1  O2N      1

