@<TRIPOS>MOLECULE
3zso_ligand_017
    78    82
SMALL
GAST_HUCK
****
This file was generated by PARSER (from files_GN.cpp)

@<TRIPOS>ATOM
      1 C1        -12.8268   49.5701    0.5773 C.ar        1 O2N      -0.0630
      2 C2        -12.1209   49.3585    1.7683 C.ar        1 O2N      -0.0640
      3 C3        -13.1658   48.4784   -0.2352 C.ar        1 O2N      -0.0483
      4 C4        -11.7499   48.0569    2.1357 C.ar        1 O2N      -0.0493
      5 C5         -7.7154   42.5802    1.0213 C.ar        1 O2N      -0.0712
      6 C6        -14.9928   44.3358   -4.6493 C.ar        1 O2N      -0.0648
      7 C7        -15.7332   45.9520   -3.0001 C.ar        1 O2N      -0.0648
      8 C8        -11.2728   43.6850   -3.0459 C.ar        1 O2N      -0.0648
      9 C9        -13.3360   42.9008   -2.0344 C.ar        1 O2N      -0.0648
     10 C10        -6.3280   42.3548    0.9841 C.ar        1 O2N      -0.0449
     11 C11       -16.2945   44.2654   -5.1730 C.ar        1 O2N      -0.0392
     12 C12       -17.0407   45.8751   -3.5165 C.ar        1 O2N      -0.0392
     13 C13       -10.6553   42.4593   -2.7339 C.ar        1 O2N      -0.0392
     14 C14       -12.7125   41.6849   -1.7001 C.ar        1 O2N      -0.0392
     15 C15       -12.8125   47.1524    0.1241 C.ar        1 O2N       0.0566
     16 C16        -7.4260   44.4416    2.5933 C.ar        1 O2N       0.0376
     17 C17       -14.6811   45.1739   -3.5486 C.ar        1 O2N      -0.0192
     18 C18       -12.6311   43.9208   -2.7202 C.ar        1 O2N      -0.0192
     19 C19       -12.0759   46.9336    1.3289 C.ar        1 O2N       0.0220
     20 C20        -8.2951   43.6314    1.7851 C.ar        1 O2N      -0.0032
     21 C21        -5.4932   43.2036    1.7204 C.ar        1 O2N       0.1200
     22 C22        -6.0271   44.2134    2.5036 C.ar        1 O2N       0.1327
     23 C23       -17.3270   45.0435   -4.6202 C.ar        1 O2N       0.0839
     24 C24       -11.3734   41.4547   -2.0595 C.ar        1 O2N       0.0839
     25 C25        -7.6080   45.7703   -1.3488 C.2         1 O2N      -0.1125
     26 C26        -8.6522   45.1776   -0.7584 C.2         1 O2N      -0.0447
     27 C27       -13.2023   46.1214   -0.7202 C.2         1 O2N       0.2037
     28 C28        -7.8729   45.4329    3.5096 C.2         1 O2N       0.0515
     29 C29        -3.8482   44.3251    2.5506 C.3         1 O2N       0.1864
     30 C30       -19.1670   46.0964   -5.6790 C.3         1 O2N       0.0579
     31 C31        -9.6837   40.2324   -0.9577 C.3         1 O2N       0.0579
     32 C32       -11.5543   45.5888    1.7524 C.3         1 O2N       0.0086
     33 C33        -9.7980   43.7734    1.7135 C.3         1 O2N       0.0003
     34 C34        -9.5180   45.8477    0.1999 C.3         1 O2N      -0.0011
     35 C35       -13.2609   45.2424   -3.0584 C.3         1 O2N       0.0982
     36 N36       -12.9660   46.2035   -2.0268 N.am        1 O2N      -0.2653
     37 N37       -10.4532   44.9238    0.9435 N.4         1 O2N       0.2715
     38 O38        -7.3873   45.5076    4.7743 O.co2       1 O2N      -0.5668
     39 O39       -13.8171   45.1761   -0.2491 O.2         1 O2N      -0.3883
     40 O40        -8.8072   46.3496    3.1988 O.co2       1 O2N      -0.5668
     41 O41        -4.1493   43.1251    1.8190 O.3         1 O2N      -0.2947
     42 O42        -5.0361   44.8782    3.1394 O.3         1 O2N      -0.2890
     43 O43       -18.5950   44.9020   -5.1167 O.3         1 O2N      -0.3255
     44 O44       -10.8205   40.2232   -1.8340 O.3         1 O2N      -0.3255
     45 H1        -13.0959   50.5192    0.3053 H           1 O2N       0.0572
     46 H2        -11.8724   50.1529    2.3651 H           1 O2N       0.0635
     47 H3        -13.7010   48.6638   -1.0897 H           1 O2N       0.0651
     48 H4        -11.2234   47.9437    3.0057 H           1 O2N       0.0570
     49 H5         -8.3055   41.9588    0.4710 H           1 O2N       0.0445
     50 H6        -14.2669   43.7584   -5.0770 H           1 O2N       0.0534
     51 H7        -15.5647   46.5882   -2.2202 H           1 O2N       0.0534
     52 H8        -10.7162   44.4066   -3.5169 H           1 O2N       0.0534
     53 H9        -14.3133   43.0363   -1.7743 H           1 O2N       0.0534
     54 H10        -5.9462   41.5836    0.4364 H           1 O2N       0.0514
     55 H11       -16.4925   43.6398   -5.9580 H           1 O2N       0.0526
     56 H12       -17.7853   46.4307   -3.0881 H           1 O2N       0.0526
     57 H13        -9.6804   42.2993   -3.0002 H           1 O2N       0.0526
     58 H14       -13.2382   40.9630   -1.2073 H           1 O2N       0.0526
     59 H15        -7.0463   45.2649   -1.9899 H           1 O2N       0.0292
     60 H16        -7.3848   46.7195   -1.1712 H           1 O2N       0.0292
     61 H17        -8.8534   44.2362   -1.0071 H           1 O2N       0.0725
     62 H18        -3.4053   45.0604    1.8718 H           1 O2N       0.0973
     63 H19        -3.1224   44.1033    3.3368 H           1 O2N       0.0973
     64 H20       -20.1282   45.8320   -6.1212 H           1 O2N       0.0575
     65 H21       -18.5325   46.5158   -6.4626 H           1 O2N       0.0575
     66 H22       -19.3438   46.8496   -4.9096 H           1 O2N       0.0575
     67 H23        -9.3803   39.2004   -0.7834 H           1 O2N       0.0575
     68 H24        -9.9300   40.6824    0.0069 H           1 O2N       0.0575
     69 H25        -8.8402   40.7531   -1.4121 H           1 O2N       0.0575
     70 H26       -12.3928   44.8910    1.7941 H           1 O2N       0.0995
     71 H27       -11.2518   45.6772    2.7918 H           1 O2N       0.0995
     72 H28       -10.1399   43.7044    2.7472 H           1 O2N       0.0966
     73 H29       -10.2331   42.8734    1.2624 H           1 O2N       0.0966
     74 H30       -10.0885   46.5474   -0.4108 H           1 O2N       0.0998
     75 H31        -8.9392   46.4258    0.9247 H           1 O2N       0.0998
     76 H32       -12.7240   45.6411   -3.9259 H           1 O2N       0.0837
     77 H33       -12.4884   46.9956   -2.3188 H           1 O2N       0.1893
     78 H34       -10.9616   44.4603    0.1859 H           1 O2N       0.2082
@<TRIPOS>BOND
     1     1     2  ar
     2     3     1  ar
     3     4     2  ar
     4    15     3  ar
     5    19     4  ar
     6     5    10  ar
     7    20     5  ar
     8     6    11  ar
     9    17     6  ar
    10     7    12  ar
    11    17     7  ar
    12     8    13  ar
    13    18     8  ar
    14     9    14  ar
    15    18     9  ar
    16    10    21  ar
    17    11    23  ar
    18    12    23  ar
    19    13    24  ar
    20    14    24  ar
    21    15    19  ar
    22    27    15   1
    23    20    16  ar
    24    16    22  ar
    25    16    28   1
    26    35    17   1
    27    35    18   1
    28    19    32   1
    29    33    20   1
    30    22    21  ar
    31    21    41   1
    32    22    42   1
    33    23    43   1
    34    24    44   1
    35    26    25   2
    36    34    26   1
    37    36    27  am
    38    27    39   2
    39    28    38  ar
    40    28    40  ar
    41    29    41   1
    42    42    29   1
    43    43    30   1
    44    44    31   1
    45    32    37   1
    46    37    33   1
    47    37    34   1
    48    35    36   1
    49     1    45   1
    50     2    46   1
    51     3    47   1
    52     4    48   1
    53     5    49   1
    54     6    50   1
    55     7    51   1
    56     8    52   1
    57     9    53   1
    58    10    54   1
    59    11    55   1
    60    12    56   1
    61    13    57   1
    62    14    58   1
    63    25    59   1
    64    25    60   1
    65    26    61   1
    66    29    62   1
    67    29    63   1
    68    30    64   1
    69    30    65   1
    70    30    66   1
    71    31    67   1
    72    31    68   1
    73    31    69   1
    74    32    70   1
    75    32    71   1
    76    33    72   1
    77    33    73   1
    78    34    74   1
    79    34    75   1
    80    35    76   1
    81    36    77   1
    82    37    78   1
@<TRIPOS>SUBSTRUCTURE
     1  O2N      1

