@<TRIPOS>MOLECULE
3zso_ligand_082
    78    82
SMALL
GAST_HUCK
****
This file was generated by PARSER (from files_GN.cpp)

@<TRIPOS>ATOM
      1 C1         -7.3229   47.7536    1.6450 C.ar        1 O2N      -0.0630
      2 C2         -8.0881   48.7248    2.2996 C.ar        1 O2N      -0.0640
      3 C3         -7.9624   46.7281    0.9321 C.ar        1 O2N      -0.0483
      4 C4         -9.4876   48.6920    2.2059 C.ar        1 O2N      -0.0493
      5 C5        -10.9075   51.2519    0.7709 C.ar        1 O2N      -0.0712
      6 C6        -11.7681   45.0054   -2.9763 C.ar        1 O2N      -0.0648
      7 C7        -12.2235   43.0045   -1.6867 C.ar        1 O2N      -0.0648
      8 C8         -9.4662   41.4730   -1.9885 C.ar        1 O2N      -0.0648
      9 C9         -8.7669   42.4867    0.0975 C.ar        1 O2N      -0.0648
     10 C10        -9.8314   52.1267    0.9836 C.ar        1 O2N      -0.0449
     11 C11       -13.1223   45.0714   -3.3542 C.ar        1 O2N      -0.0392
     12 C12       -13.5712   43.0534   -2.0778 C.ar        1 O2N      -0.0392
     13 C13        -9.0905   40.2055   -1.5069 C.ar        1 O2N      -0.0392
     14 C14        -8.3891   41.2181    0.5814 C.ar        1 O2N      -0.0392
     15 C15        -9.3799   46.6596    0.8292 C.ar        1 O2N       0.0566
     16 C16        -9.8998   50.4519   -1.3237 C.ar        1 O2N       0.0376
     17 C17       -11.2891   43.9736   -2.1328 C.ar        1 O2N      -0.0192
     18 C18        -9.3417   42.6388   -1.1884 C.ar        1 O2N      -0.0192
     19 C19       -10.1586   47.7006    1.4422 C.ar        1 O2N       0.0220
     20 C20       -10.9611   50.3959   -0.3640 C.ar        1 O2N      -0.0032
     21 C21        -8.8009   52.1603    0.0416 C.ar        1 O2N       0.1200
     22 C22        -8.8360   51.3578   -1.0881 C.ar        1 O2N       0.1327
     23 C23       -14.0354   44.1024   -2.8930 C.ar        1 O2N       0.0839
     24 C24        -8.5641   40.0688   -0.2097 C.ar        1 O2N       0.0839
     25 C25       -14.9004   48.2113    0.8413 C.2         1 O2N      -0.1125
     26 C26       -14.5416   47.7243   -0.3521 C.2         1 O2N      -0.0447
     27 C27        -9.9342   45.5446    0.1878 C.2         1 O2N       0.2037
     28 C28        -9.8608   49.6767   -2.5156 C.2         1 O2N       0.0515
     29 C29        -6.9287   52.3811   -0.9911 C.3         1 O2N       0.1864
     30 C30       -16.1962   44.6684   -2.1892 C.3         1 O2N       0.0579
     31 C31        -7.3334   38.0632   -0.3976 C.3         1 O2N       0.0579
     32 C32       -11.6461   47.8262    1.2786 C.3         1 O2N       0.0086
     33 C33       -12.1771   49.5441   -0.5356 C.3         1 O2N       0.0003
     34 C34       -13.1935   47.2699   -0.6683 C.3         1 O2N      -0.0011
     35 C35        -9.8357   43.9492   -1.7406 C.3         1 O2N       0.0982
     36 N36        -9.4714   45.1230   -0.9898 N.am        1 O2N      -0.2653
     37 N37       -12.0372   48.0899   -0.1553 N.4         1 O2N       0.2715
     38 O38        -9.5676   50.2383   -3.7149 O.co2       1 O2N      -0.5668
     39 O39       -10.7817   44.8803    0.7714 O.2         1 O2N      -0.3883
     40 O40       -10.0589   48.3385   -2.5155 O.co2       1 O2N      -0.5668
     41 O41        -7.7048   52.9381    0.0812 O.3         1 O2N      -0.2947
     42 O42        -7.7463   51.5785   -1.8572 O.3         1 O2N      -0.2890
     43 O43       -15.3551   44.1572   -3.2399 O.3         1 O2N      -0.3255
     44 O44        -8.2939   38.8411    0.3339 O.3         1 O2N      -0.3255
     45 H1         -6.3012   47.7798    1.7061 H           1 O2N       0.0572
     46 H2         -7.6269   49.4651    2.8369 H           1 O2N       0.0635
     47 H3         -7.3652   46.0110    0.5091 H           1 O2N       0.0651
     48 H4        -10.0152   49.4210    2.6890 H           1 O2N       0.0570
     49 H5        -11.6573   51.2387    1.4641 H           1 O2N       0.0445
     50 H6        -11.1312   45.7319   -3.3143 H           1 O2N       0.0534
     51 H7        -11.9349   42.2481   -1.0611 H           1 O2N       0.0534
     52 H8         -9.8641   41.5393   -2.9268 H           1 O2N       0.0534
     53 H9         -8.6374   43.2905    0.7117 H           1 O2N       0.0534
     54 H10        -9.8004   52.7271    1.8066 H           1 O2N       0.0514
     55 H11       -13.4501   45.8283   -3.9573 H           1 O2N       0.0526
     56 H12       -14.2227   42.3349   -1.7552 H           1 O2N       0.0526
     57 H13        -9.2095   39.3818   -2.1024 H           1 O2N       0.0526
     58 H14        -7.9985   41.1308    1.5239 H           1 O2N       0.0526
     59 H15       -15.8242   48.5373    0.9913 H           1 O2N       0.0292
     60 H16       -14.2556   48.2638    1.5884 H           1 O2N       0.0292
     61 H17       -15.2350   47.6893   -1.0668 H           1 O2N       0.0725
     62 H18        -6.1345   51.7582   -0.5743 H           1 O2N       0.0973
     63 H19        -6.4722   53.1876   -1.5648 H           1 O2N       0.0973
     64 H20       -17.2346   44.5900   -2.5131 H           1 O2N       0.0575
     65 H21       -15.9771   45.7211   -1.9973 H           1 O2N       0.0575
     66 H22       -16.0847   44.0964   -1.2632 H           1 O2N       0.0575
     67 H23        -7.1020   37.1677    0.1793 H           1 O2N       0.0575
     68 H24        -6.4068   38.6164   -0.5568 H           1 O2N       0.0575
     69 H25        -7.7413   37.7482   -1.3597 H           1 O2N       0.0575
     70 H26       -12.0603   48.6167    1.9107 H           1 O2N       0.0995
     71 H27       -12.0868   46.9064    1.6611 H           1 O2N       0.0995
     72 H28       -12.4797   49.6271   -1.5824 H           1 O2N       0.0966
     73 H29       -13.0070   49.9742    0.0358 H           1 O2N       0.0966
     74 H30       -13.0990   47.2504   -1.7565 H           1 O2N       0.0998
     75 H31       -13.0969   46.2307   -0.3479 H           1 O2N       0.0998
     76 H32        -9.2709   44.0639   -2.6716 H           1 O2N       0.0837
     77 H33        -8.8069   45.6913   -1.4078 H           1 O2N       0.1893
     78 H34       -11.2465   47.7479   -0.7011 H           1 O2N       0.2082
@<TRIPOS>BOND
     1     1     2  ar
     2     3     1  ar
     3     4     2  ar
     4    15     3  ar
     5    19     4  ar
     6     5    10  ar
     7    20     5  ar
     8     6    11  ar
     9    17     6  ar
    10     7    12  ar
    11    17     7  ar
    12     8    13  ar
    13    18     8  ar
    14     9    14  ar
    15    18     9  ar
    16    10    21  ar
    17    11    23  ar
    18    12    23  ar
    19    13    24  ar
    20    14    24  ar
    21    15    19  ar
    22    27    15   1
    23    20    16  ar
    24    16    22  ar
    25    16    28   1
    26    35    17   1
    27    35    18   1
    28    19    32   1
    29    33    20   1
    30    22    21  ar
    31    21    41   1
    32    22    42   1
    33    23    43   1
    34    24    44   1
    35    26    25   2
    36    34    26   1
    37    36    27  am
    38    27    39   2
    39    28    38  ar
    40    28    40  ar
    41    29    41   1
    42    42    29   1
    43    43    30   1
    44    44    31   1
    45    32    37   1
    46    37    33   1
    47    37    34   1
    48    35    36   1
    49     1    45   1
    50     2    46   1
    51     3    47   1
    52     4    48   1
    53     5    49   1
    54     6    50   1
    55     7    51   1
    56     8    52   1
    57     9    53   1
    58    10    54   1
    59    11    55   1
    60    12    56   1
    61    13    57   1
    62    14    58   1
    63    25    59   1
    64    25    60   1
    65    26    61   1
    66    29    62   1
    67    29    63   1
    68    30    64   1
    69    30    65   1
    70    30    66   1
    71    31    67   1
    72    31    68   1
    73    31    69   1
    74    32    70   1
    75    32    71   1
    76    33    72   1
    77    33    73   1
    78    34    74   1
    79    34    75   1
    80    35    76   1
    81    36    77   1
    82    37    78   1
@<TRIPOS>SUBSTRUCTURE
     1  O2N      1

