@<TRIPOS>MOLECULE
3zso_ligand_002
    78    82
SMALL
GAST_HUCK
****
This file was generated by PARSER (from files_GN.cpp)

@<TRIPOS>ATOM
      1 C1        -11.5330   47.3403    2.5828 C.ar        1 O2N      -0.0630
      2 C2        -12.0167   48.6345    2.8021 C.ar        1 O2N      -0.0640
      3 C3        -12.0377   46.5800    1.5163 C.ar        1 O2N      -0.0483
      4 C4        -12.9751   49.1795    1.9273 C.ar        1 O2N      -0.0493
      5 C5        -12.7418   53.1380   -1.4239 C.ar        1 O2N      -0.0712
      6 C6        -15.0503   45.2804   -4.6746 C.ar        1 O2N      -0.0648
      7 C7        -16.0185   45.3788   -2.4516 C.ar        1 O2N      -0.0648
      8 C8        -11.4518   43.9687   -2.8695 C.ar        1 O2N      -0.0648
      9 C9        -13.5117   43.0651   -1.9589 C.ar        1 O2N      -0.0648
     10 C10       -12.3422   54.2937   -2.1215 C.ar        1 O2N      -0.0449
     11 C11       -16.3347   45.1698   -5.2381 C.ar        1 O2N      -0.0392
     12 C12       -17.3067   45.2564   -3.0138 C.ar        1 O2N      -0.0392
     13 C13       -10.8121   42.7347   -2.6388 C.ar        1 O2N      -0.0392
     14 C14       -12.8684   41.8380   -1.7106 C.ar        1 O2N      -0.0392
     15 C15       -13.0220   47.1043    0.6329 C.ar        1 O2N       0.0566
     16 C16       -11.0751   51.7955   -2.6298 C.ar        1 O2N       0.0376
     17 C17       -14.8638   45.4019   -3.2730 C.ar        1 O2N      -0.0192
     18 C18       -12.8128   44.1614   -2.5267 C.ar        1 O2N      -0.0192
     19 C19       -13.4771   48.4482    0.8208 C.ar        1 O2N       0.0220
     20 C20       -12.1529   51.8662   -1.6798 C.ar        1 O2N      -0.0032
     21 C21       -11.3271   54.1908   -3.0789 C.ar        1 O2N       0.1200
     22 C22       -10.7108   52.9749   -3.3314 C.ar        1 O2N       0.1327
     23 C23       -17.4731   45.1760   -4.4131 C.ar        1 O2N       0.0839
     24 C24       -11.5109   41.6684   -2.0411 C.ar        1 O2N       0.0839
     25 C25       -17.5501   51.4774   -0.6261 C.2         1 O2N      -0.1125
     26 C26       -16.4879   50.9299   -1.2513 C.2         1 O2N      -0.0447
     27 C27       -13.5148   46.2448   -0.3399 C.2         1 O2N       0.2037
     28 C28       -10.3204   50.6219   -2.8892 C.2         1 O2N       0.0515
     29 C29        -9.6155   54.5643   -4.3352 C.3         1 O2N       0.1864
     30 C30       -19.1988   46.2440   -5.5851 C.3         1 O2N       0.0579
     31 C31        -9.7435   40.4997   -1.0096 C.3         1 O2N       0.0579
     32 C32       -14.5099   49.1328   -0.0328 C.3         1 O2N       0.0086
     33 C33       -12.6688   50.7165   -0.8481 C.3         1 O2N       0.0003
     34 C34       -15.1131   51.3618   -1.0342 C.3         1 O2N      -0.0011
     35 C35       -13.4685   45.5008   -2.7281 C.3         1 O2N       0.0982
     36 N36       -13.2521   46.4203   -1.6335 N.am        1 O2N      -0.2653
     37 N37       -14.1019   50.2473   -0.9886 N.4         1 O2N       0.2715
     38 O38        -9.5292   50.0923   -1.9297 O.co2       1 O2N      -0.5668
     39 O39       -14.1115   45.2498    0.0512 O.2         1 O2N      -0.3883
     40 O40       -10.0251   50.2517   -4.1598 O.co2       1 O2N      -0.5668
     41 O41       -10.7803   55.2007   -3.7803 O.3         1 O2N      -0.2947
     42 O42        -9.7327   53.1334   -4.2545 O.3         1 O2N      -0.2890
     43 O43       -18.7147   45.0375   -4.9675 O.3         1 O2N      -0.3255
     44 O44       -10.9163   40.4526   -1.8406 O.3         1 O2N      -0.3255
     45 H1        -10.8381   46.9383    3.2165 H           1 O2N       0.0572
     46 H2        -11.6715   49.1836    3.5933 H           1 O2N       0.0635
     47 H3        -11.6834   45.6258    1.3998 H           1 O2N       0.0651
     48 H4        -13.3335   50.1092    2.1401 H           1 O2N       0.0570
     49 H5        -13.4704   53.2392   -0.7040 H           1 O2N       0.0445
     50 H6        -14.2421   45.2717   -5.2999 H           1 O2N       0.0534
     51 H7        -15.9289   45.4269   -1.4337 H           1 O2N       0.0534
     52 H8        -10.9117   44.7306   -3.2840 H           1 O2N       0.0534
     53 H9        -14.4967   43.1553   -1.7048 H           1 O2N       0.0534
     54 H10       -12.7723   55.1985   -1.9167 H           1 O2N       0.0514
     55 H11       -16.4362   45.0876   -6.2528 H           1 O2N       0.0526
     56 H12       -18.1247   45.2304   -2.4018 H           1 O2N       0.0526
     57 H13        -9.8302   42.6181   -2.8943 H           1 O2N       0.0526
     58 H14       -13.3870   41.0705   -1.2809 H           1 O2N       0.0526
     59 H15       -18.4685   51.1455   -0.8157 H           1 O2N       0.0292
     60 H16       -17.4432   52.1996    0.0477 H           1 O2N       0.0292
     61 H17       -16.6620   50.2206   -1.9265 H           1 O2N       0.0725
     62 H18        -8.7256   54.8807   -3.7837 H           1 O2N       0.0973
     63 H19        -9.4874   54.8712   -5.3749 H           1 O2N       0.0973
     64 H20       -20.2077   46.0556   -5.9553 H           1 O2N       0.0575
     65 H21       -18.5745   46.5383   -6.4334 H           1 O2N       0.0575
     66 H22       -19.2501   47.0675   -4.8670 H           1 O2N       0.0575
     67 H23        -9.4165   39.4743   -0.8280 H           1 O2N       0.0575
     68 H24        -9.9497   40.9666   -0.0422 H           1 O2N       0.0575
     69 H25        -8.9304   41.0321   -1.5077 H           1 O2N       0.0575
     70 H26       -15.2682   49.4922    0.6672 H           1 O2N       0.0995
     71 H27       -15.0316   48.3967   -0.6445 H           1 O2N       0.0995
     72 H28       -12.4826   50.9756    0.2018 H           1 O2N       0.0966
     73 H29       -12.0499   49.8438   -1.0424 H           1 O2N       0.0966
     74 H30       -15.0261   51.9522   -0.1194 H           1 O2N       0.0998
     75 H31       -14.8932   52.0172   -1.8749 H           1 O2N       0.0998
     76 H32       -12.9179   46.0059   -3.5282 H           1 O2N       0.0837
     77 H33       -12.7661   47.2342   -1.8549 H           1 O2N       0.1893
     78 H34       -14.1494   49.8258   -1.9191 H           1 O2N       0.2082
@<TRIPOS>BOND
     1     1     2  ar
     2     3     1  ar
     3     4     2  ar
     4    15     3  ar
     5    19     4  ar
     6     5    10  ar
     7    20     5  ar
     8     6    11  ar
     9    17     6  ar
    10     7    12  ar
    11    17     7  ar
    12     8    13  ar
    13    18     8  ar
    14     9    14  ar
    15    18     9  ar
    16    10    21  ar
    17    11    23  ar
    18    12    23  ar
    19    13    24  ar
    20    14    24  ar
    21    15    19  ar
    22    27    15   1
    23    20    16  ar
    24    16    22  ar
    25    16    28   1
    26    35    17   1
    27    35    18   1
    28    19    32   1
    29    33    20   1
    30    22    21  ar
    31    21    41   1
    32    22    42   1
    33    23    43   1
    34    24    44   1
    35    26    25   2
    36    34    26   1
    37    36    27  am
    38    27    39   2
    39    28    38  ar
    40    28    40  ar
    41    29    41   1
    42    42    29   1
    43    43    30   1
    44    44    31   1
    45    32    37   1
    46    37    33   1
    47    37    34   1
    48    35    36   1
    49     1    45   1
    50     2    46   1
    51     3    47   1
    52     4    48   1
    53     5    49   1
    54     6    50   1
    55     7    51   1
    56     8    52   1
    57     9    53   1
    58    10    54   1
    59    11    55   1
    60    12    56   1
    61    13    57   1
    62    14    58   1
    63    25    59   1
    64    25    60   1
    65    26    61   1
    66    29    62   1
    67    29    63   1
    68    30    64   1
    69    30    65   1
    70    30    66   1
    71    31    67   1
    72    31    68   1
    73    31    69   1
    74    32    70   1
    75    32    71   1
    76    33    72   1
    77    33    73   1
    78    34    74   1
    79    34    75   1
    80    35    76   1
    81    36    77   1
    82    37    78   1
@<TRIPOS>SUBSTRUCTURE
     1  O2N      1

