@<TRIPOS>MOLECULE
3zso_ligand_018
    78    82
SMALL
GAST_HUCK
****
This file was generated by PARSER (from files_GN.cpp)

@<TRIPOS>ATOM
      1 C1        -19.5795   45.4580   -5.9732 C.ar        1 O2N      -0.0630
      2 C2        -18.3736   44.7425   -5.9963 C.ar        1 O2N      -0.0640
      3 C3        -19.7081   46.5894   -5.1528 C.ar        1 O2N      -0.0483
      4 C4        -17.2954   45.1612   -5.1900 C.ar        1 O2N      -0.0493
      5 C5        -12.9027   45.8581   -2.5774 C.ar        1 O2N      -0.0712
      6 C6        -19.9188   51.4736   -5.5884 C.ar        1 O2N      -0.0648
      7 C7        -17.8996   52.6887   -5.0155 C.ar        1 O2N      -0.0648
      8 C8        -16.2773   50.6709   -2.6504 C.ar        1 O2N      -0.0648
      9 C9        -18.0647   51.7712   -1.4180 C.ar        1 O2N      -0.0648
     10 C10       -11.6422   45.2474   -2.6600 C.ar        1 O2N      -0.0449
     11 C11       -20.1884   52.4019   -6.6113 C.ar        1 O2N      -0.0392
     12 C12       -18.1663   53.6137   -6.0443 C.ar        1 O2N      -0.0392
     13 C13       -15.3668   51.0373   -1.6406 C.ar        1 O2N      -0.0392
     14 C14       -17.1465   52.1476   -0.4186 C.ar        1 O2N      -0.0392
     15 C15       -18.6312   47.0185   -4.3281 C.ar        1 O2N       0.0566
     16 C16       -12.8482   45.7172   -0.1390 C.ar        1 O2N       0.0376
     17 C17       -18.7767   51.6050   -4.7558 C.ar        1 O2N      -0.0192
     18 C18       -17.6463   51.0266   -2.5486 C.ar        1 O2N      -0.0192
     19 C19       -17.4056   46.2803   -4.3257 C.ar        1 O2N       0.0220
     20 C20       -13.5647   46.0638   -1.3335 C.ar        1 O2N      -0.0032
     21 C21       -10.9854   44.8741   -1.4806 C.ar        1 O2N       0.1200
     22 C22       -11.5660   45.1284   -0.2460 C.ar        1 O2N       0.1327
     23 C23       -19.3063   53.4704   -6.8515 C.ar        1 O2N       0.0839
     24 C24       -15.7907   51.7749   -0.5223 C.ar        1 O2N       0.0839
     25 C25       -18.5399   44.6732   -1.2835 C.2         1 O2N      -0.1125
     26 C26       -17.2773   44.2514   -1.1172 C.2         1 O2N      -0.0447
     27 C27       -18.8060   48.1800   -3.6068 C.2         1 O2N       0.2037
     28 C28       -13.3457   45.9382    1.1593 C.2         1 O2N       0.0515
     29 C29        -9.7153   44.0301    0.0398 C.3         1 O2N       0.1864
     30 C30       -19.2661   54.0156   -9.1540 C.3         1 O2N       0.0579
     31 C31       -14.7992   53.3894    0.9012 C.3         1 O2N       0.0579
     32 C32       -16.2000   46.6874   -3.5285 C.3         1 O2N       0.0086
     33 C33       -14.9284   46.7165   -1.3323 C.3         1 O2N       0.0003
     34 C34       -16.1922   44.6140   -2.0168 C.3         1 O2N      -0.0011
     35 C35       -18.6347   50.6448   -3.6127 C.3         1 O2N       0.0982
     36 N36       -18.3814   49.3242   -4.1243 N.am        1 O2N      -0.2653
     37 N37       -16.0614   46.1185   -2.1344 N.4         1 O2N       0.2715
     38 O38       -12.7543   46.8550    1.9638 O.co2       1 O2N      -0.5668
     39 O39       -19.4735   48.1255   -2.5783 O.2         1 O2N      -0.3883
     40 O40       -14.3973   45.2332    1.6390 O.co2       1 O2N      -0.5668
     41 O41        -9.7792   44.2883   -1.3701 O.3         1 O2N      -0.2947
     42 O42       -10.7438   44.7354    0.7549 O.3         1 O2N      -0.2890
     43 O43       -19.5568   54.4223   -7.8117 O.3         1 O2N      -0.3255
     44 O44       -14.8798   52.0182    0.4758 O.3         1 O2N      -0.3255
     45 H1        -20.3578   45.1545   -6.5622 H           1 O2N       0.0572
     46 H2        -18.2732   43.9223   -6.5924 H           1 O2N       0.0635
     47 H3        -20.5974   47.0978   -5.1679 H           1 O2N       0.0651
     48 H4        -16.4252   44.6321   -5.2419 H           1 O2N       0.0570
     49 H5        -13.3306   46.1616   -3.4547 H           1 O2N       0.0445
     50 H6        -20.5770   50.7058   -5.4536 H           1 O2N       0.0534
     51 H7        -17.0656   52.8361   -4.4426 H           1 O2N       0.0534
     52 H8        -15.9382   50.1470   -3.4591 H           1 O2N       0.0534
     53 H9        -19.0419   52.0511   -1.3212 H           1 O2N       0.0534
     54 H10       -11.1967   45.0863   -3.5715 H           1 O2N       0.0514
     55 H11       -21.0398   52.2981   -7.1652 H           1 O2N       0.0526
     56 H12       -17.5249   54.4019   -6.1896 H           1 O2N       0.0526
     57 H13       -14.3852   50.7639   -1.7213 H           1 O2N       0.0526
     58 H14       -17.4731   52.6893    0.3892 H           1 O2N       0.0526
     59 H15       -19.2586   44.3740   -0.6652 H           1 O2N       0.0292
     60 H16       -18.7865   45.2735   -2.0391 H           1 O2N       0.0292
     61 H17       -17.0892   43.6264   -0.3649 H           1 O2N       0.0725
     62 H18        -8.7354   44.3299    0.4133 H           1 O2N       0.0973
     63 H19        -9.8320   42.9586    0.2176 H           1 O2N       0.0973
     64 H20       -19.3553   54.9006   -9.8052 H           1 O2N       0.0575
     65 H21       -19.9693   53.2599   -9.5075 H           1 O2N       0.0575
     66 H22       -18.2405   53.6353   -9.2494 H           1 O2N       0.0575
     67 H23       -13.9640   53.4730    1.5956 H           1 O2N       0.0575
     68 H24       -15.7097   53.6923    1.4213 H           1 O2N       0.0575
     69 H25       -14.6120   54.0616    0.0603 H           1 O2N       0.0575
     70 H26       -16.2134   47.7793   -3.4613 H           1 O2N       0.0995
     71 H27       -15.3140   46.4399   -4.1129 H           1 O2N       0.0995
     72 H28       -14.7765   47.7649   -1.6024 H           1 O2N       0.0966
     73 H29       -15.3091   46.7723   -0.3156 H           1 O2N       0.0966
     74 H30       -16.3968   44.1393   -2.9796 H           1 O2N       0.0998
     75 H31       -15.2733   44.1566   -1.6578 H           1 O2N       0.0998
     76 H32       -19.6297   50.6065   -3.1508 H           1 O2N       0.0837
     77 H33       -17.9077   49.2683   -4.9731 H           1 O2N       0.1893
     78 H34       -16.8746   46.4795   -1.6400 H           1 O2N       0.2082
@<TRIPOS>BOND
     1     1     2  ar
     2     3     1  ar
     3     4     2  ar
     4    15     3  ar
     5    19     4  ar
     6     5    10  ar
     7    20     5  ar
     8     6    11  ar
     9    17     6  ar
    10     7    12  ar
    11    17     7  ar
    12     8    13  ar
    13    18     8  ar
    14     9    14  ar
    15    18     9  ar
    16    10    21  ar
    17    11    23  ar
    18    12    23  ar
    19    13    24  ar
    20    14    24  ar
    21    15    19  ar
    22    27    15   1
    23    20    16  ar
    24    16    22  ar
    25    16    28   1
    26    35    17   1
    27    35    18   1
    28    19    32   1
    29    33    20   1
    30    22    21  ar
    31    21    41   1
    32    22    42   1
    33    23    43   1
    34    24    44   1
    35    26    25   2
    36    34    26   1
    37    36    27  am
    38    27    39   2
    39    28    38  ar
    40    28    40  ar
    41    29    41   1
    42    42    29   1
    43    43    30   1
    44    44    31   1
    45    32    37   1
    46    37    33   1
    47    37    34   1
    48    35    36   1
    49     1    45   1
    50     2    46   1
    51     3    47   1
    52     4    48   1
    53     5    49   1
    54     6    50   1
    55     7    51   1
    56     8    52   1
    57     9    53   1
    58    10    54   1
    59    11    55   1
    60    12    56   1
    61    13    57   1
    62    14    58   1
    63    25    59   1
    64    25    60   1
    65    26    61   1
    66    29    62   1
    67    29    63   1
    68    30    64   1
    69    30    65   1
    70    30    66   1
    71    31    67   1
    72    31    68   1
    73    31    69   1
    74    32    70   1
    75    32    71   1
    76    33    72   1
    77    33    73   1
    78    34    74   1
    79    34    75   1
    80    35    76   1
    81    36    77   1
    82    37    78   1
@<TRIPOS>SUBSTRUCTURE
     1  O2N      1

