@<TRIPOS>MOLECULE
3zso_ligand_063
    78    82
SMALL
GAST_HUCK
****
This file was generated by PARSER (from files_GN.cpp)

@<TRIPOS>ATOM
      1 C1        -19.6232   45.7509   -6.4633 C.ar        1 O2N      -0.0630
      2 C2        -18.9127   44.5409   -6.4718 C.ar        1 O2N      -0.0640
      3 C3        -19.0531   46.8914   -5.8792 C.ar        1 O2N      -0.0483
      4 C4        -17.6328   44.4731   -5.8936 C.ar        1 O2N      -0.0493
      5 C5        -12.8305   44.2286   -2.8521 C.ar        1 O2N      -0.0712
      6 C6        -18.0285   51.6804   -6.3996 C.ar        1 O2N      -0.0648
      7 C7        -18.1238   51.7050   -3.9687 C.ar        1 O2N      -0.0648
      8 C8        -14.4179   49.7635   -6.6704 C.ar        1 O2N      -0.0648
      9 C9        -14.7240   52.0425   -5.8943 C.ar        1 O2N      -0.0648
     10 C10       -11.7350   43.4264   -2.4646 C.ar        1 O2N      -0.0449
     11 C11       -19.0949   52.5958   -6.4511 C.ar        1 O2N      -0.0392
     12 C12       -19.2007   52.6060   -4.0200 C.ar        1 O2N      -0.0392
     13 C13       -13.3017   50.1707   -7.4251 C.ar        1 O2N      -0.0392
     14 C14       -13.6226   52.4553   -6.6644 C.ar        1 O2N      -0.0392
     15 C15       -17.7691   46.8358   -5.2757 C.ar        1 O2N       0.0566
     16 C16       -13.0366   45.0862   -0.5610 C.ar        1 O2N       0.0376
     17 C17       -17.5115   51.2362   -5.1568 C.ar        1 O2N      -0.0192
     18 C18       -15.1692   50.6953   -5.9085 C.ar        1 O2N      -0.0192
     19 C19       -17.0395   45.6063   -5.2875 C.ar        1 O2N       0.0220
     20 C20       -13.4966   45.0590   -1.9232 C.ar        1 O2N      -0.0032
     21 C21       -11.3512   43.4157   -1.1187 C.ar        1 O2N       0.1200
     22 C22       -11.9738   44.2302   -0.1902 C.ar        1 O2N       0.1327
     23 C23       -19.6741   53.0761   -5.2608 C.ar        1 O2N       0.0839
     24 C24       -12.9193   51.5231   -7.4517 C.ar        1 O2N       0.0839
     25 C25       -17.0184   43.9823   -0.7752 C.2         1 O2N      -0.1125
     26 C26       -16.4343   43.2242   -1.7084 C.2         1 O2N      -0.0447
     27 C27       -17.2792   48.0031   -4.7067 C.2         1 O2N       0.2037
     28 C28       -13.5652   45.9393    0.4196 C.2         1 O2N       0.0515
     29 C29       -10.2816   43.2669    0.7562 C.3         1 O2N       0.1864
     30 C30       -20.2845   55.3315   -5.1846 C.3         1 O2N       0.0579
     31 C31       -12.2294   52.2298   -9.5690 C.3         1 O2N       0.0579
     32 C32       -15.6620   45.4758   -4.7205 C.3         1 O2N       0.0086
     33 C33       -14.6798   45.8412   -2.4006 C.3         1 O2N       0.0003
     34 C34       -15.9227   43.6710   -2.9994 C.3         1 O2N      -0.0011
     35 C35       -16.3622   50.2799   -5.0937 C.3         1 O2N       0.0982
     36 N36       -16.9143   49.0101   -5.4882 N.am        1 O2N      -0.2653
     37 N37       -15.7380   45.1533   -3.2474 N.4         1 O2N       0.2715
     38 O38       -14.4590   45.4889    1.3375 O.co2       1 O2N      -0.5668
     39 O39       -17.2329   48.0865   -3.4855 O.2         1 O2N      -0.3883
     40 O40       -13.0763   47.1915    0.5753 O.co2       1 O2N      -0.5668
     41 O41       -10.3646   42.6781   -0.5541 O.3         1 O2N      -0.2947
     42 O42       -11.4170   44.1073    1.0295 O.3         1 O2N      -0.2890
     43 O43       -20.7123   53.9642   -5.3150 O.3         1 O2N      -0.3255
     44 O44       -11.8561   51.9235   -8.2130 O.3         1 O2N      -0.3255
     45 H1        -20.5568   45.7981   -6.8818 H           1 O2N       0.0572
     46 H2        -19.3251   43.7093   -6.9043 H           1 O2N       0.0635
     47 H3        -19.5940   47.7609   -5.8820 H           1 O2N       0.0651
     48 H4        -17.1386   43.5791   -5.9224 H           1 O2N       0.0570
     49 H5        -13.0933   44.2313   -3.8393 H           1 O2N       0.0445
     50 H6        -17.6150   51.3538   -7.2763 H           1 O2N       0.0534
     51 H7        -17.7929   51.3858   -3.0545 H           1 O2N       0.0534
     52 H8        -14.6671   48.7726   -6.6819 H           1 O2N       0.0534
     53 H9        -15.2158   52.7449   -5.3364 H           1 O2N       0.0534
     54 H10       -11.2495   42.8299   -3.1463 H           1 O2N       0.0514
     55 H11       -19.4417   52.9200   -7.3574 H           1 O2N       0.0526
     56 H12       -19.6324   52.9299   -3.1519 H           1 O2N       0.0526
     57 H13       -12.7758   49.4816   -7.9654 H           1 O2N       0.0526
     58 H14       -13.3393   53.4397   -6.6633 H           1 O2N       0.0526
     59 H15       -17.3076   43.5737    0.0811 H           1 O2N       0.0292
     60 H16       -17.1532   44.9550   -0.9033 H           1 O2N       0.0292
     61 H17       -16.3701   42.2477   -1.5270 H           1 O2N       0.0725
     62 H18        -9.3685   43.8682    0.8143 H           1 O2N       0.0973
     63 H19       -10.2202   42.4798    1.5132 H           1 O2N       0.0973
     64 H20       -21.1643   55.9708   -5.2533 H           1 O2N       0.0575
     65 H21       -19.5954   55.6124   -5.9854 H           1 O2N       0.0575
     66 H22       -19.8100   55.5098   -4.2162 H           1 O2N       0.0575
     67 H23       -11.3332   52.5332  -10.1095 H           1 O2N       0.0575
     68 H24       -12.9460   53.0543   -9.6085 H           1 O2N       0.0575
     69 H25       -12.6511   51.3565  -10.0744 H           1 O2N       0.0575
     70 H26       -15.1455   46.4136   -4.9296 H           1 O2N       0.0995
     71 H27       -15.0770   44.7200   -5.2516 H           1 O2N       0.0995
     72 H28       -14.2704   46.7201   -2.8952 H           1 O2N       0.0966
     73 H29       -15.2337   46.2439   -1.5543 H           1 O2N       0.0966
     74 H30       -16.6447   43.2718   -3.7356 H           1 O2N       0.0998
     75 H31       -14.9684   43.1747   -3.1749 H           1 O2N       0.0998
     76 H32       -15.9908   50.2275   -4.0641 H           1 O2N       0.0837
     77 H33       -17.0223   48.8767   -6.4445 H           1 O2N       0.1893
     78 H34       -16.6122   45.5825   -2.9357 H           1 O2N       0.2082
@<TRIPOS>BOND
     1     1     2  ar
     2     3     1  ar
     3     4     2  ar
     4    15     3  ar
     5    19     4  ar
     6     5    10  ar
     7    20     5  ar
     8     6    11  ar
     9    17     6  ar
    10     7    12  ar
    11    17     7  ar
    12     8    13  ar
    13    18     8  ar
    14     9    14  ar
    15    18     9  ar
    16    10    21  ar
    17    11    23  ar
    18    12    23  ar
    19    13    24  ar
    20    14    24  ar
    21    15    19  ar
    22    27    15   1
    23    20    16  ar
    24    16    22  ar
    25    16    28   1
    26    35    17   1
    27    35    18   1
    28    19    32   1
    29    33    20   1
    30    22    21  ar
    31    21    41   1
    32    22    42   1
    33    23    43   1
    34    24    44   1
    35    26    25   2
    36    34    26   1
    37    36    27  am
    38    27    39   2
    39    28    38  ar
    40    28    40  ar
    41    29    41   1
    42    42    29   1
    43    43    30   1
    44    44    31   1
    45    32    37   1
    46    37    33   1
    47    37    34   1
    48    35    36   1
    49     1    45   1
    50     2    46   1
    51     3    47   1
    52     4    48   1
    53     5    49   1
    54     6    50   1
    55     7    51   1
    56     8    52   1
    57     9    53   1
    58    10    54   1
    59    11    55   1
    60    12    56   1
    61    13    57   1
    62    14    58   1
    63    25    59   1
    64    25    60   1
    65    26    61   1
    66    29    62   1
    67    29    63   1
    68    30    64   1
    69    30    65   1
    70    30    66   1
    71    31    67   1
    72    31    68   1
    73    31    69   1
    74    32    70   1
    75    32    71   1
    76    33    72   1
    77    33    73   1
    78    34    74   1
    79    34    75   1
    80    35    76   1
    81    36    77   1
    82    37    78   1
@<TRIPOS>SUBSTRUCTURE
     1  O2N      1

