@<TRIPOS>MOLECULE
3zso_ligand_051
    78    82
SMALL
GAST_HUCK
****
This file was generated by PARSER (from files_GN.cpp)

@<TRIPOS>ATOM
      1 C1        -11.1333   47.4040    3.1592 C.ar        1 O2N      -0.0630
      2 C2        -11.5728   48.7331    3.1224 C.ar        1 O2N      -0.0640
      3 C3        -10.8839   46.7164    1.9627 C.ar        1 O2N      -0.0483
      4 C4        -11.7200   49.3858    1.8885 C.ar        1 O2N      -0.0493
      5 C5        -13.4050   52.7626   -0.7648 C.ar        1 O2N      -0.0712
      6 C6        -13.0221   45.4362   -3.1171 C.ar        1 O2N      -0.0648
      7 C7        -13.5455   43.4131   -1.8759 C.ar        1 O2N      -0.0648
      8 C8        -10.5511   42.1076   -2.2912 C.ar        1 O2N      -0.0648
      9 C9        -10.1572   42.8139   -0.0029 C.ar        1 O2N      -0.0648
     10 C10       -14.5400   53.2495   -1.4422 C.ar        1 O2N      -0.0449
     11 C11       -14.3310   45.4658   -3.6265 C.ar        1 O2N      -0.0392
     12 C12       -14.8537   43.4372   -2.3892 C.ar        1 O2N      -0.0392
     13 C13       -10.0518   40.8286   -1.9782 C.ar        1 O2N      -0.0392
     14 C14        -9.6619   41.5367    0.3071 C.ar        1 O2N      -0.0392
     15 C15       -11.0567   47.3536    0.7049 C.ar        1 O2N       0.0566
     16 C16       -12.0661   52.9578   -2.8011 C.ar        1 O2N       0.0376
     17 C17       -12.5996   44.4040   -2.2439 C.ar        1 O2N      -0.0192
     18 C18       -10.6296   43.1235   -1.3030 C.ar        1 O2N      -0.0192
     19 C19       -11.4432   48.7342    0.6613 C.ar        1 O2N       0.0220
     20 C20       -12.1570   52.5782   -1.4242 C.ar        1 O2N      -0.0032
     21 C21       -14.4355   53.5521   -2.8061 C.ar        1 O2N       0.1200
     22 C22       -13.2277   53.4112   -3.4685 C.ar        1 O2N       0.1327
     23 C23       -15.2573   44.4742   -3.2518 C.ar        1 O2N       0.0839
     24 C24        -9.5900   40.5374   -0.6825 C.ar        1 O2N       0.0839
     25 C25        -8.0057   48.9683   -1.7602 C.2         1 O2N      -0.1125
     26 C26        -9.1662   49.1872   -2.3982 C.2         1 O2N      -0.0447
     27 C27       -10.8135   46.5847   -0.4285 C.2         1 O2N       0.2037
     28 C28       -10.8676   52.9761   -3.5348 C.2         1 O2N       0.0515
     29 C29       -14.6975   54.2301   -4.8475 C.3         1 O2N       0.1864
     30 C30       -17.4668   45.1499   -2.8864 C.3         1 O2N       0.0579
     31 C31        -7.9044   39.1346    0.2498 C.3         1 O2N       0.0579
     32 C32       -11.6917   49.5159   -0.6005 C.3         1 O2N       0.0086
     33 C33       -11.0179   51.9923   -0.6314 C.3         1 O2N       0.0003
     34 C34        -9.9630   50.3873   -2.2397 C.3         1 O2N      -0.0011
     35 C35       -11.2200   44.4587   -1.6579 C.3         1 O2N       0.0982
     36 N36       -11.3287   45.3665   -0.5411 N.am        1 O2N      -0.2653
     37 N37       -10.6256   50.5548   -0.8976 N.4         1 O2N       0.2715
     38 O38       -10.7262   52.1932   -4.6338 O.co2       1 O2N      -0.5668
     39 O39       -10.0488   47.0165   -1.2765 O.2         1 O2N      -0.3883
     40 O40        -9.9950   53.9888   -3.3651 O.co2       1 O2N      -0.5668
     41 O41       -15.4103   54.0138   -3.6139 O.3         1 O2N      -0.2947
     42 O42       -13.3315   53.7878   -4.7617 O.3         1 O2N      -0.2890
     43 O43       -16.5265   44.4961   -3.7567 O.3         1 O2N      -0.3255
     44 O44        -9.1828   39.2580   -0.4011 O.3         1 O2N      -0.3255
     45 H1        -10.9995   46.9352    4.0571 H           1 O2N       0.0572
     46 H2        -11.7887   49.2240    3.9930 H           1 O2N       0.0635
     47 H3        -10.5626   45.7468    2.0199 H           1 O2N       0.0651
     48 H4        -12.0636   50.3458    1.9071 H           1 O2N       0.0570
     49 H5        -13.5081   52.5311    0.2259 H           1 O2N       0.0445
     50 H6        -12.3754   46.1850   -3.3774 H           1 O2N       0.0534
     51 H7        -13.2897   42.6692   -1.2232 H           1 O2N       0.0534
     52 H8        -10.8782   42.2868   -3.2420 H           1 O2N       0.0534
     53 H9        -10.1824   43.5145    0.7394 H           1 O2N       0.0534
     54 H10       -15.4275   53.3755   -0.9522 H           1 O2N       0.0514
     55 H11       -14.6144   46.2206   -4.2535 H           1 O2N       0.0526
     56 H12       -15.5196   42.7130   -2.1140 H           1 O2N       0.0526
     57 H13       -10.0388   40.0990   -2.6942 H           1 O2N       0.0526
     58 H14        -9.3683   41.3344    1.2636 H           1 O2N       0.0526
     59 H15        -7.4870   48.1372   -1.9382 H           1 O2N       0.0292
     60 H16        -7.6324   49.6372   -1.1271 H           1 O2N       0.0292
     61 H17        -9.4763   48.4974   -3.0458 H           1 O2N       0.0725
     62 H18       -14.7083   55.2966   -5.0883 H           1 O2N       0.0973
     63 H19       -15.1982   53.6904   -5.6556 H           1 O2N       0.0973
     64 H20       -18.4435   45.1319   -3.3712 H           1 O2N       0.0575
     65 H21       -17.1909   46.1935   -2.7102 H           1 O2N       0.0575
     66 H22       -17.5529   44.6292   -1.9285 H           1 O2N       0.0575
     67 H23        -7.6602   38.0739    0.3183 H           1 O2N       0.0575
     68 H24        -7.9431   39.5383    1.2647 H           1 O2N       0.0575
     69 H25        -7.1096   39.6337   -0.3128 H           1 O2N       0.0575
     70 H26       -12.6742   49.9811   -0.5110 H           1 O2N       0.0995
     71 H27       -11.8066   48.8269   -1.4385 H           1 O2N       0.0995
     72 H28       -11.2389   52.0724    0.4334 H           1 O2N       0.0966
     73 H29       -10.1444   52.6346   -0.7539 H           1 O2N       0.0966
     74 H30       -10.7309   50.4112   -3.0196 H           1 O2N       0.0998
     75 H31        -9.2710   51.2094   -2.4395 H           1 O2N       0.0998
     76 H32       -10.5460   44.8753   -2.4183 H           1 O2N       0.0837
     77 H33       -11.8594   45.0504    0.2087 H           1 O2N       0.1893
     78 H34        -9.8764   50.3703   -0.2234 H           1 O2N       0.2082
@<TRIPOS>BOND
     1     1     2  ar
     2     3     1  ar
     3     4     2  ar
     4    15     3  ar
     5    19     4  ar
     6     5    10  ar
     7    20     5  ar
     8     6    11  ar
     9    17     6  ar
    10     7    12  ar
    11    17     7  ar
    12     8    13  ar
    13    18     8  ar
    14     9    14  ar
    15    18     9  ar
    16    10    21  ar
    17    11    23  ar
    18    12    23  ar
    19    13    24  ar
    20    14    24  ar
    21    15    19  ar
    22    27    15   1
    23    20    16  ar
    24    16    22  ar
    25    16    28   1
    26    35    17   1
    27    35    18   1
    28    19    32   1
    29    33    20   1
    30    22    21  ar
    31    21    41   1
    32    22    42   1
    33    23    43   1
    34    24    44   1
    35    26    25   2
    36    34    26   1
    37    36    27  am
    38    27    39   2
    39    28    38  ar
    40    28    40  ar
    41    29    41   1
    42    42    29   1
    43    43    30   1
    44    44    31   1
    45    32    37   1
    46    37    33   1
    47    37    34   1
    48    35    36   1
    49     1    45   1
    50     2    46   1
    51     3    47   1
    52     4    48   1
    53     5    49   1
    54     6    50   1
    55     7    51   1
    56     8    52   1
    57     9    53   1
    58    10    54   1
    59    11    55   1
    60    12    56   1
    61    13    57   1
    62    14    58   1
    63    25    59   1
    64    25    60   1
    65    26    61   1
    66    29    62   1
    67    29    63   1
    68    30    64   1
    69    30    65   1
    70    30    66   1
    71    31    67   1
    72    31    68   1
    73    31    69   1
    74    32    70   1
    75    32    71   1
    76    33    72   1
    77    33    73   1
    78    34    74   1
    79    34    75   1
    80    35    76   1
    81    36    77   1
    82    37    78   1
@<TRIPOS>SUBSTRUCTURE
     1  O2N      1

