@<TRIPOS>MOLECULE
3zso_ligand_064
    78    82
SMALL
GAST_HUCK
****
This file was generated by PARSER (from files_GN.cpp)

@<TRIPOS>ATOM
      1 C1        -15.9639   43.8941   -5.9383 C.ar        1 O2N      -0.0630
      2 C2        -16.4633   43.4006   -4.7242 C.ar        1 O2N      -0.0640
      3 C3        -15.7229   45.2716   -6.0926 C.ar        1 O2N      -0.0483
      4 C4        -16.6395   44.2719   -3.6389 C.ar        1 O2N      -0.0493
      5 C5        -12.0319   45.0472   -2.2507 C.ar        1 O2N      -0.0712
      6 C6        -18.5090   50.6057   -3.3521 C.ar        1 O2N      -0.0648
      7 C7        -19.1180   50.4844   -5.6989 C.ar        1 O2N      -0.0648
      8 C8        -15.4623   51.6006   -6.1697 C.ar        1 O2N      -0.0648
      9 C9        -16.3652   49.7981   -7.5225 C.ar        1 O2N      -0.0648
     10 C10       -10.6403   44.9686   -2.0374 C.ar        1 O2N      -0.0449
     11 C11       -19.8130   51.0257   -3.0333 C.ar        1 O2N      -0.0392
     12 C12       -20.4160   50.9233   -5.3859 C.ar        1 O2N      -0.0392
     13 C13       -14.8879   52.1815   -7.3156 C.ar        1 O2N      -0.0392
     14 C14       -15.8041   50.3874   -8.6769 C.ar        1 O2N      -0.0392
     15 C15       -15.9692   46.1724   -5.0268 C.ar        1 O2N       0.0566
     16 C16       -12.4010   45.5461    0.1267 C.ar        1 O2N       0.0376
     17 C17       -18.1374   50.3202   -4.6892 C.ar        1 O2N      -0.0192
     18 C18       -16.2022   50.3961   -6.2497 C.ar        1 O2N      -0.0192
     19 C19       -16.3715   45.6567   -3.7554 C.ar        1 O2N       0.0220
     20 C20       -12.9339   45.3133   -1.1846 C.ar        1 O2N      -0.0032
     21 C21       -10.1402   45.1868   -0.7502 C.ar        1 O2N       0.1200
     22 C22       -10.9959   45.4835    0.3010 C.ar        1 O2N       0.1327
     23 C23       -20.7789   51.1775   -4.0471 C.ar        1 O2N       0.0839
     24 C24       -15.0500   51.5714   -8.5753 C.ar        1 O2N       0.0839
     25 C25       -13.3561   49.0427    0.4337 C.2         1 O2N      -0.1125
     26 C26       -13.6433   48.2718   -0.6288 C.2         1 O2N      -0.0447
     27 C27       -15.8333   47.5280   -5.2784 C.2         1 O2N       0.2037
     28 C28       -13.1795   45.9109    1.2542 C.2         1 O2N       0.0515
     29 C29        -8.9412   45.6186    0.9869 C.3         1 O2N       0.1864
     30 C30       -23.0241   50.5902   -3.6500 C.3         1 O2N       0.0579
     31 C31       -13.0888   52.0668   -9.7564 C.3         1 O2N       0.0579
     32 C32       -16.3812   46.4847   -2.5122 C.3         1 O2N       0.0086
     33 C33       -14.3952   45.3136   -1.5259 C.3         1 O2N       0.0003
     34 C34       -14.9503   47.6705   -0.8302 C.3         1 O2N      -0.0011
     35 C35       -16.7704   49.7959   -4.9986 C.3         1 O2N       0.0982
     36 N36       -16.8098   48.3599   -4.9301 N.am        1 O2N      -0.2653
     37 N37       -14.9925   46.6444   -1.9339 N.4         1 O2N       0.2715
     38 O38       -12.7023   46.8184    2.1409 O.co2       1 O2N      -0.5668
     39 O39       -14.8864   47.9298   -5.9456 O.2         1 O2N      -0.3883
     40 O40       -14.3389   45.2925    1.5704 O.co2       1 O2N      -0.5668
     41 O41        -8.8510   45.1251   -0.3602 O.3         1 O2N      -0.2947
     42 O42       -10.3023   45.6419    1.4491 O.3         1 O2N      -0.2890
     43 O43       -22.0321   51.6303   -3.7353 O.3         1 O2N      -0.3255
     44 O44       -14.5265   52.1376   -9.7050 O.3         1 O2N      -0.3255
     45 H1        -15.7837   43.2536   -6.7107 H           1 O2N       0.0572
     46 H2        -16.6501   42.3995   -4.6159 H           1 O2N       0.0635
     47 H3        -15.3769   45.6075   -6.9974 H           1 O2N       0.0651
     48 H4        -16.9229   43.8718   -2.7430 H           1 O2N       0.0570
     49 H5        -12.3808   44.8812   -3.1993 H           1 O2N       0.0445
     50 H6        -17.8341   50.4912   -2.5916 H           1 O2N       0.0534
     51 H7        -18.8915   50.2905   -6.6783 H           1 O2N       0.0534
     52 H8        -15.3281   52.0649   -5.2674 H           1 O2N       0.0534
     53 H9        -16.8999   48.9331   -7.6298 H           1 O2N       0.0534
     54 H10       -10.0070   44.7414   -2.8066 H           1 O2N       0.0514
     55 H11       -20.0573   51.2173   -2.0582 H           1 O2N       0.0526
     56 H12       -21.1023   51.0497   -6.1341 H           1 O2N       0.0526
     57 H13       -14.3500   53.0460   -7.2311 H           1 O2N       0.0526
     58 H14       -15.9428   49.9465   -9.5892 H           1 O2N       0.0526
     59 H15       -12.4464   49.4187    0.5444 H           1 O2N       0.0292
     60 H16       -14.0456   49.2446    1.1195 H           1 O2N       0.0292
     61 H17       -12.9249   48.1179   -1.2997 H           1 O2N       0.0725
     62 H18        -8.5334   46.6316    1.0247 H           1 O2N       0.0973
     63 H19        -8.3459   44.9871    1.6466 H           1 O2N       0.0973
     64 H20       -23.9792   51.0453   -3.3819 H           1 O2N       0.0575
     65 H21       -22.7673   49.8584   -2.8790 H           1 O2N       0.0575
     66 H22       -23.1518   50.0803   -4.6095 H           1 O2N       0.0575
     67 H23       -12.7620   52.4441  -10.7260 H           1 O2N       0.0575
     68 H24       -12.7292   51.0383   -9.6540 H           1 O2N       0.0575
     69 H25       -12.6378   52.6903   -8.9785 H           1 O2N       0.0575
     70 H26       -17.0439   46.0388   -1.7604 H           1 O2N       0.0995
     71 H27       -16.8330   47.4476   -2.7681 H           1 O2N       0.0995
     72 H28       -14.9961   44.9186   -0.7077 H           1 O2N       0.0966
     73 H29       -14.5186   44.5893   -2.3363 H           1 O2N       0.0966
     74 H30       -15.6161   48.5082   -1.0634 H           1 O2N       0.0998
     75 H31       -15.3005   47.2181    0.1060 H           1 O2N       0.0998
     76 H32       -16.0942   50.0746   -4.1799 H           1 O2N       0.0837
     77 H33       -17.5936   47.9631   -4.5115 H           1 O2N       0.1893
     78 H34       -14.4188   47.0381   -2.6826 H           1 O2N       0.2082
@<TRIPOS>BOND
     1     1     2  ar
     2     3     1  ar
     3     4     2  ar
     4    15     3  ar
     5    19     4  ar
     6     5    10  ar
     7    20     5  ar
     8     6    11  ar
     9    17     6  ar
    10     7    12  ar
    11    17     7  ar
    12     8    13  ar
    13    18     8  ar
    14     9    14  ar
    15    18     9  ar
    16    10    21  ar
    17    11    23  ar
    18    12    23  ar
    19    13    24  ar
    20    14    24  ar
    21    15    19  ar
    22    27    15   1
    23    20    16  ar
    24    16    22  ar
    25    16    28   1
    26    35    17   1
    27    35    18   1
    28    19    32   1
    29    33    20   1
    30    22    21  ar
    31    21    41   1
    32    22    42   1
    33    23    43   1
    34    24    44   1
    35    26    25   2
    36    34    26   1
    37    36    27  am
    38    27    39   2
    39    28    38  ar
    40    28    40  ar
    41    29    41   1
    42    42    29   1
    43    43    30   1
    44    44    31   1
    45    32    37   1
    46    37    33   1
    47    37    34   1
    48    35    36   1
    49     1    45   1
    50     2    46   1
    51     3    47   1
    52     4    48   1
    53     5    49   1
    54     6    50   1
    55     7    51   1
    56     8    52   1
    57     9    53   1
    58    10    54   1
    59    11    55   1
    60    12    56   1
    61    13    57   1
    62    14    58   1
    63    25    59   1
    64    25    60   1
    65    26    61   1
    66    29    62   1
    67    29    63   1
    68    30    64   1
    69    30    65   1
    70    30    66   1
    71    31    67   1
    72    31    68   1
    73    31    69   1
    74    32    70   1
    75    32    71   1
    76    33    72   1
    77    33    73   1
    78    34    74   1
    79    34    75   1
    80    35    76   1
    81    36    77   1
    82    37    78   1
@<TRIPOS>SUBSTRUCTURE
     1  O2N      1

