@<TRIPOS>MOLECULE
3zsx_ligand_058
    60    63
SMALL
GAST_HUCK
****
This file was generated by PARSER (from files_GN.cpp)

@<TRIPOS>ATOM
      1 C1        -11.0655   42.9215   -2.2319 C.ar        1 N44      -0.0687
      2 C2        -18.8994   48.0907   -2.7971 C.ar        1 N44      -0.0630
      3 C3        -11.7001   43.8244   -3.0999 C.ar        1 N44      -0.0685
      4 C4        -11.8371   42.1239   -1.3694 C.ar        1 N44      -0.0685
      5 C5        -17.9459   49.1149   -2.8480 C.ar        1 N44      -0.0640
      6 C6        -18.5145   46.8011   -2.3975 C.ar        1 N44      -0.0483
      7 C7        -13.1040   43.9283   -3.1088 C.ar        1 N44      -0.0584
      8 C8        -13.2412   42.2389   -1.3701 C.ar        1 N44      -0.0584
      9 C9        -16.6143   48.8512   -2.4826 C.ar        1 N44      -0.0493
     10 C10       -13.2768   50.2260   -0.3583 C.ar        1 N44      -0.0712
     11 C11       -12.2083   51.0064   -0.8236 C.ar        1 N44      -0.0449
     12 C12       -17.1682   46.5042   -2.0589 C.ar        1 N44       0.0564
     13 C13       -11.7228   48.7174    0.8109 C.ar        1 N44       0.0376
     14 C14       -13.9008   43.1510   -2.2304 C.ar        1 N44      -0.0211
     15 C15       -16.1949   47.5576   -2.0738 C.ar        1 N44       0.0219
     16 C16       -13.0652   49.0497    0.4191 C.ar        1 N44      -0.0032
     17 C17       -10.9043   50.6083   -0.5166 C.ar        1 N44       0.1200
     18 C18       -10.6653   49.5025    0.2821 C.ar        1 N44       0.1327
     19 C19       -11.6796   46.2056   -1.1740 C.2         1 N44      -0.1125
     20 C20       -12.4179   45.5596   -0.2608 C.2         1 N44      -0.0447
     21 C21       -16.8558   45.1799   -1.7517 C.2         1 N44       0.2021
     22 C22       -11.3833   47.6576    1.6959 C.2         1 N44       0.0515
     23 C23        -8.7863   50.2594   -0.5147 C.3         1 N44       0.1864
     24 C24       -15.3909   43.2428   -2.2672 C.3         1 N44       0.0638
     25 C25       -14.7598   47.3676   -1.6643 C.3         1 N44       0.0086
     26 C26       -14.2831   48.2167    0.7116 C.3         1 N44       0.0003
     27 C27       -13.8182   45.7836    0.1001 C.3         1 N44      -0.0011
     28 N28       -15.8611   44.5889   -2.3974 N.am        1 N44      -0.2760
     29 N29       -14.5741   47.0502   -0.2021 N.4         1 N44       0.2715
     30 O30       -10.1647   47.0690    1.6761 O.co2       1 N44      -0.5668
     31 O31       -17.5810   44.5593   -0.9819 O.2         1 N44      -0.3884
     32 O32       -12.1761   47.3039    2.7286 O.co2       1 N44      -0.5668
     33 O33        -9.7774   51.2166   -0.9224 O.3         1 N44      -0.2947
     34 O34        -9.3343   49.3479    0.4583 O.3         1 N44      -0.2890
     35 H1        -10.0461   42.8446   -2.2278 H           1 N44       0.0559
     36 H2        -19.8668   48.2800   -3.0654 H           1 N44       0.0572
     37 H3        -11.1409   44.4142   -3.7215 H           1 N44       0.0599
     38 H4        -11.3786   41.4538   -0.7491 H           1 N44       0.0599
     39 H5        -18.2212   50.0517   -3.1502 H           1 N44       0.0635
     40 H6        -19.2323   46.0690   -2.3906 H           1 N44       0.0651
     41 H7        -13.5419   44.5878   -3.7563 H           1 N44       0.0557
     42 H8        -13.7785   41.6286   -0.7500 H           1 N44       0.0557
     43 H9        -15.9510   49.6313   -2.5081 H           1 N44       0.0570
     44 H10       -14.2236   50.5084   -0.6344 H           1 N44       0.0445
     45 H11       -12.3754   51.8327   -1.4017 H           1 N44       0.0514
     46 H12       -10.7133   45.9841   -1.2771 H           1 N44       0.0292
     47 H13       -12.0495   46.9403   -1.7219 H           1 N44       0.0292
     48 H14       -11.9491   44.8417    0.2512 H           1 N44       0.0725
     49 H15        -7.9304   50.7883   -0.0887 H           1 N44       0.0973
     50 H16        -8.4397   49.6979   -1.3906 H           1 N44       0.0973
     51 H17       -15.8296   42.7505   -1.3934 H           1 N44       0.0683
     52 H18       -15.7390   42.7056   -3.1485 H           1 N44       0.0683
     53 H19       -14.1757   48.2546   -1.9085 H           1 N44       0.0995
     54 H20       -14.3320   46.5871   -2.2932 H           1 N44       0.0995
     55 H21       -15.1756   48.8500    0.6791 H           1 N44       0.0966
     56 H22       -14.2677   47.8780    1.7457 H           1 N44       0.0966
     57 H23       -13.9007   45.5841    1.1762 H           1 N44       0.0998
     58 H24       -14.3786   44.9796   -0.3861 H           1 N44       0.0998
     59 H25       -15.4372   45.1152   -3.0943 H           1 N44       0.1869
     60 H26       -15.5178   46.7951    0.0919 H           1 N44       0.2082
@<TRIPOS>BOND
     1     3     1  ar
     2     4     1  ar
     3     5     2  ar
     4     6     2  ar
     5     7     3  ar
     6     8     4  ar
     7     9     5  ar
     8    12     6  ar
     9    14     7  ar
    10    14     8  ar
    11    15     9  ar
    12    10    11  ar
    13    16    10  ar
    14    11    17  ar
    15    15    12  ar
    16    12    21   1
    17    16    13  ar
    18    13    18  ar
    19    13    22   1
    20    24    14   1
    21    25    15   1
    22    26    16   1
    23    18    17  ar
    24    17    33   1
    25    18    34   1
    26    20    19   2
    27    27    20   1
    28    21    28  am
    29    21    31   2
    30    22    30  ar
    31    22    32  ar
    32    23    33   1
    33    34    23   1
    34    28    24   1
    35    29    25   1
    36    29    26   1
    37    27    29   1
    38     1    35   1
    39     2    36   1
    40     3    37   1
    41     4    38   1
    42     5    39   1
    43     6    40   1
    44     7    41   1
    45     8    42   1
    46     9    43   1
    47    10    44   1
    48    11    45   1
    49    19    46   1
    50    19    47   1
    51    20    48   1
    52    23    49   1
    53    23    50   1
    54    24    51   1
    55    24    52   1
    56    25    53   1
    57    25    54   1
    58    26    55   1
    59    26    56   1
    60    27    57   1
    61    27    58   1
    62    28    59   1
    63    29    60   1
@<TRIPOS>SUBSTRUCTURE
     1  N44      1

