@<TRIPOS>MOLECULE
3zsx_ligand_028
    60    63
SMALL
GAST_HUCK
****
This file was generated by PARSER (from files_GN.cpp)

@<TRIPOS>ATOM
      1 C1        -21.2450   37.6888   -8.7692 C.ar        1 N44      -0.0687
      2 C2        -22.5404   44.6726   -9.7417 C.ar        1 N44      -0.0630
      3 C3        -20.6090   38.3984   -9.8032 C.ar        1 N44      -0.0685
      4 C4        -21.0612   38.0803   -7.4308 C.ar        1 N44      -0.0685
      5 C5        -22.8941   45.8582   -9.1043 C.ar        1 N44      -0.0640
      6 C6        -21.5311   43.8628   -9.2012 C.ar        1 N44      -0.0483
      7 C7        -19.7879   39.4991   -9.4988 C.ar        1 N44      -0.0584
      8 C8        -20.2351   39.1765   -7.1276 C.ar        1 N44      -0.0584
      9 C9        -22.2148   46.2371   -7.9428 C.ar        1 N44      -0.0493
     10 C10       -17.5659   49.4287   -4.5678 C.ar        1 N44      -0.0712
     11 C11       -16.6460   50.4789   -4.7183 C.ar        1 N44      -0.0449
     12 C12       -20.8090   44.2090   -8.0180 C.ar        1 N44       0.0564
     13 C13       -16.2256   47.9740   -6.0345 C.ar        1 N44       0.0376
     14 C14       -19.5857   39.8999   -8.1568 C.ar        1 N44      -0.0211
     15 C15       -21.1705   45.4511   -7.3827 C.ar        1 N44       0.0219
     16 C16       -17.4054   48.1867   -5.2499 C.ar        1 N44      -0.0032
     17 C17       -15.5443   50.2836   -5.5588 C.ar        1 N44       0.1200
     18 C18       -15.3445   49.0709   -6.2029 C.ar        1 N44       0.1327
     19 C19       -21.1699   49.3766   -5.3887 C.2         1 N44      -0.1125
     20 C20       -20.9755   49.0110   -6.6784 C.2         1 N44      -0.0447
     21 C21       -19.8633   43.2743   -7.5217 C.2         1 N44       0.2021
     22 C22       -15.9176   46.7435   -6.6708 C.2         1 N44       0.0515
     23 C23       -13.7785   50.4756   -6.7817 C.3         1 N44       0.1864
     24 C24       -18.7298   41.0742   -7.8375 C.3         1 N44       0.0638
     25 C25       -20.5228   46.0407   -6.1575 C.3         1 N44       0.0086
     26 C26       -18.5405   47.2006   -5.1792 C.3         1 N44       0.0003
     27 C27       -19.8308   48.2477   -7.1595 C.3         1 N44      -0.0011
     28 N28       -19.3950   42.2708   -8.2679 N.am        1 N44      -0.2760
     29 N29       -19.3904   47.0013   -6.4193 N.4         1 N44       0.2715
     30 O30       -16.1937   45.5572   -6.0913 O.co2       1 N44      -0.5668
     31 O31       -19.5331   43.2947   -6.3390 O.2         1 N44      -0.3884
     32 O32       -15.1096   46.6825   -7.7501 O.co2       1 N44      -0.5668
     33 O33       -14.5793   51.1874   -5.8259 O.3         1 N44      -0.2947
     34 O34       -14.2332   49.1264   -6.9653 O.3         1 N44      -0.2890
     35 H1        -21.8398   36.8873   -8.9893 H           1 N44       0.0559
     36 H2        -23.0338   44.3798  -10.5870 H           1 N44       0.0572
     37 H3        -20.7432   38.1169  -10.7738 H           1 N44       0.0599
     38 H4        -21.5241   37.5658   -6.6815 H           1 N44       0.0599
     39 H5        -23.6390   46.4474   -9.4844 H           1 N44       0.0635
     40 H6        -21.3570   42.9908   -9.7005 H           1 N44       0.0651
     41 H7        -19.3343   40.0087  -10.2633 H           1 N44       0.0557
     42 H8        -20.1177   39.4505   -6.1472 H           1 N44       0.0557
     43 H9        -22.4978   47.1273   -7.5159 H           1 N44       0.0570
     44 H10       -18.3832   49.6029   -3.9743 H           1 N44       0.0445
     45 H11       -16.7865   51.3719   -4.2414 H           1 N44       0.0514
     46 H12       -21.9591   49.9161   -5.1339 H           1 N44       0.0292
     47 H13       -20.4897   49.1838   -4.6992 H           1 N44       0.0292
     48 H14       -21.7066   49.2468   -7.3170 H           1 N44       0.0725
     49 H15       -12.7399   50.4620   -6.4454 H           1 N44       0.0973
     50 H16       -13.8250   50.9961   -7.7418 H           1 N44       0.0973
     51 H17       -17.7736   40.9967   -8.3639 H           1 N44       0.0683
     52 H18       -18.5111   41.0913   -6.7699 H           1 N44       0.0683
     53 H19       -20.2030   45.2305   -5.5093 H           1 N44       0.0995
     54 H20       -21.2504   46.5797   -5.5415 H           1 N44       0.0995
     55 H21       -19.1961   47.4569   -4.3405 H           1 N44       0.0966
     56 H22       -18.1152   46.2336   -4.9058 H           1 N44       0.0966
     57 H23       -19.0103   48.9609   -7.2684 H           1 N44       0.0998
     58 H24       -20.0626   47.9366   -8.1868 H           1 N44       0.0998
     59 H25       -19.5862   42.3109   -9.2174 H           1 N44       0.1869
     60 H26       -18.7860   46.5250   -7.0901 H           1 N44       0.2082
@<TRIPOS>BOND
     1     3     1  ar
     2     4     1  ar
     3     5     2  ar
     4     6     2  ar
     5     7     3  ar
     6     8     4  ar
     7     9     5  ar
     8    12     6  ar
     9    14     7  ar
    10    14     8  ar
    11    15     9  ar
    12    10    11  ar
    13    16    10  ar
    14    11    17  ar
    15    15    12  ar
    16    12    21   1
    17    16    13  ar
    18    13    18  ar
    19    13    22   1
    20    24    14   1
    21    25    15   1
    22    26    16   1
    23    18    17  ar
    24    17    33   1
    25    18    34   1
    26    20    19   2
    27    27    20   1
    28    21    28  am
    29    21    31   2
    30    22    30  ar
    31    22    32  ar
    32    23    33   1
    33    34    23   1
    34    28    24   1
    35    29    25   1
    36    29    26   1
    37    27    29   1
    38     1    35   1
    39     2    36   1
    40     3    37   1
    41     4    38   1
    42     5    39   1
    43     6    40   1
    44     7    41   1
    45     8    42   1
    46     9    43   1
    47    10    44   1
    48    11    45   1
    49    19    46   1
    50    19    47   1
    51    20    48   1
    52    23    49   1
    53    23    50   1
    54    24    51   1
    55    24    52   1
    56    25    53   1
    57    25    54   1
    58    26    55   1
    59    26    56   1
    60    27    57   1
    61    27    58   1
    62    28    59   1
    63    29    60   1
@<TRIPOS>SUBSTRUCTURE
     1  N44      1

