@<TRIPOS>MOLECULE
3zsx_ligand_049
    60    63
SMALL
GAST_HUCK
****
This file was generated by PARSER (from files_GN.cpp)

@<TRIPOS>ATOM
      1 C1        -11.3671   41.3471   -1.5423 C.ar        1 N44      -0.0687
      2 C2        -14.5317   49.0139    0.9396 C.ar        1 N44      -0.0630
      3 C3        -12.7319   41.4343   -1.2227 C.ar        1 N44      -0.0685
      4 C4        -10.7762   42.3375   -2.3444 C.ar        1 N44      -0.0685
      5 C5        -13.4813   49.9330    0.7569 C.ar        1 N44      -0.0640
      6 C6        -14.4325   47.7347    0.3772 C.ar        1 N44      -0.0483
      7 C7        -13.4974   42.5240   -1.6844 C.ar        1 N44      -0.0584
      8 C8        -11.5484   43.4240   -2.8145 C.ar        1 N44      -0.0584
      9 C9        -12.3458   49.5678    0.0117 C.ar        1 N44      -0.0493
     10 C10        -9.8040   50.9878   -2.2786 C.ar        1 N44      -0.0712
     11 C11       -10.4044   52.2521   -2.4078 C.ar        1 N44      -0.0449
     12 C12       -13.3043   47.3380   -0.3837 C.ar        1 N44       0.0564
     13 C13        -9.2989   51.4212    0.0971 C.ar        1 N44       0.0376
     14 C14       -12.9154   43.5433   -2.4797 C.ar        1 N44      -0.0211
     15 C15       -12.2294   48.2731   -0.5568 C.ar        1 N44       0.0219
     16 C16        -9.2757   50.5352   -1.0258 C.ar        1 N44      -0.0032
     17 C17       -10.4488   53.0929   -1.2926 C.ar        1 N44       0.1200
     18 C18        -9.8935   52.6986   -0.0818 C.ar        1 N44       0.1327
     19 C19        -7.8838   44.9368   -0.9662 C.2         1 N44      -0.1125
     20 C20        -8.1295   46.2488   -0.8705 C.2         1 N44      -0.0447
     21 C21       -13.3432   46.0595   -0.9394 C.2         1 N44       0.2021
     22 C22        -8.7852   51.1067    1.3905 C.2         1 N44       0.0515
     23 C23       -10.7380   54.6929    0.1160 C.3         1 N44       0.1864
     24 C24       -13.7240   44.6996   -2.9501 C.3         1 N44       0.0638
     25 C25       -10.9728   47.9923   -1.3155 C.3         1 N44       0.0086
     26 C26        -8.7315   49.1439   -0.9653 C.3         1 N44       0.0003
     27 C27        -9.1529   46.8256   -0.0074 C.3         1 N44      -0.0011
     28 N28       -13.4479   45.9164   -2.2544 N.am        1 N44      -0.2760
     29 N29        -9.7394   48.1478   -0.4467 N.4         1 N44       0.2715
     30 O30        -8.0874   52.0180    2.1102 O.co2       1 N44      -0.5668
     31 O31       -13.4499   45.0929   -0.1961 O.2         1 N44      -0.3884
     32 O32        -8.9658   49.9126    1.9872 O.co2       1 N44      -0.5668
     33 O33       -11.0322   54.3018   -1.2307 O.3         1 N44      -0.2947
     34 O34       -10.0959   53.6455    0.8546 O.3         1 N44      -0.2890
     35 H1        -10.8099   40.5631   -1.2019 H           1 N44       0.0559
     36 H2        -15.3654   49.2836    1.4632 H           1 N44       0.0572
     37 H3        -13.1634   40.7297   -0.6234 H           1 N44       0.0599
     38 H4         -9.7866   42.2724   -2.5834 H           1 N44       0.0599
     39 H5        -13.5421   50.8586    1.1739 H           1 N44       0.0635
     40 H6        -15.2284   47.0963    0.5013 H           1 N44       0.0651
     41 H7        -14.4811   42.5786   -1.4151 H           1 N44       0.0557
     42 H8        -11.0946   44.1408   -3.3980 H           1 N44       0.0557
     43 H9        -11.5967   50.2632   -0.1133 H           1 N44       0.0570
     44 H10        -9.7856   50.3764   -3.1051 H           1 N44       0.0445
     45 H11       -10.8146   52.5526   -3.2996 H           1 N44       0.0514
     46 H12        -7.1338   44.6099   -1.5391 H           1 N44       0.0292
     47 H13        -8.4513   44.2665   -0.4980 H           1 N44       0.0292
     48 H14        -7.5300   46.8575   -1.3769 H           1 N44       0.0725
     49 H15       -11.6680   54.9660    0.6118 H           1 N44       0.0973
     50 H16       -10.0787   55.5602    0.0943 H           1 N44       0.0973
     51 H17       -14.7962   44.4864   -2.8603 H           1 N44       0.0683
     52 H18       -13.5183   44.8646   -4.0082 H           1 N44       0.0683
     53 H19       -10.9764   48.6896   -2.1596 H           1 N44       0.0995
     54 H20       -10.9633   46.9997   -1.7742 H           1 N44       0.0995
     55 H21        -7.8352   49.1583   -0.3463 H           1 N44       0.0966
     56 H22        -8.3924   48.8216   -1.9501 H           1 N44       0.0966
     57 H23        -8.7156   46.9445    0.9812 H           1 N44       0.0998
     58 H24        -9.9753   46.1118    0.1055 H           1 N44       0.0998
     59 H25       -13.4431   46.7267   -2.7917 H           1 N44       0.1869
     60 H26       -10.0734   48.5664    0.4307 H           1 N44       0.2082
@<TRIPOS>BOND
     1     3     1  ar
     2     4     1  ar
     3     5     2  ar
     4     6     2  ar
     5     7     3  ar
     6     8     4  ar
     7     9     5  ar
     8    12     6  ar
     9    14     7  ar
    10    14     8  ar
    11    15     9  ar
    12    10    11  ar
    13    16    10  ar
    14    11    17  ar
    15    15    12  ar
    16    12    21   1
    17    16    13  ar
    18    13    18  ar
    19    13    22   1
    20    24    14   1
    21    25    15   1
    22    26    16   1
    23    18    17  ar
    24    17    33   1
    25    18    34   1
    26    20    19   2
    27    27    20   1
    28    21    28  am
    29    21    31   2
    30    22    30  ar
    31    22    32  ar
    32    23    33   1
    33    34    23   1
    34    28    24   1
    35    29    25   1
    36    29    26   1
    37    27    29   1
    38     1    35   1
    39     2    36   1
    40     3    37   1
    41     4    38   1
    42     5    39   1
    43     6    40   1
    44     7    41   1
    45     8    42   1
    46     9    43   1
    47    10    44   1
    48    11    45   1
    49    19    46   1
    50    19    47   1
    51    20    48   1
    52    23    49   1
    53    23    50   1
    54    24    51   1
    55    24    52   1
    56    25    53   1
    57    25    54   1
    58    26    55   1
    59    26    56   1
    60    27    57   1
    61    27    58   1
    62    28    59   1
    63    29    60   1
@<TRIPOS>SUBSTRUCTURE
     1  N44      1

