@<TRIPOS>MOLECULE
3zsx_ligand_062
    60    63
SMALL
GAST_HUCK
****
This file was generated by PARSER (from files_GN.cpp)

@<TRIPOS>ATOM
      1 C1        -21.3391   48.4374   -1.8109 C.ar        1 N44      -0.0687
      2 C2        -17.2912   42.1935   -6.4745 C.ar        1 N44      -0.0630
      3 C3        -21.7289   49.0617   -3.0088 C.ar        1 N44      -0.0685
      4 C4        -20.1736   47.6507   -1.7811 C.ar        1 N44      -0.0685
      5 C5        -15.9224   42.2736   -6.2071 C.ar        1 N44      -0.0640
      6 C6        -18.1320   43.2411   -6.0715 C.ar        1 N44      -0.0483
      7 C7        -20.9674   48.8798   -4.1776 C.ar        1 N44      -0.0584
      8 C8        -19.3983   47.4906   -2.9443 C.ar        1 N44      -0.0584
      9 C9        -15.4170   43.3577   -5.4725 C.ar        1 N44      -0.0493
     10 C10       -12.5393   46.2973   -2.3769 C.ar        1 N44      -0.0712
     11 C11       -11.1742   46.5885   -2.2119 C.ar        1 N44      -0.0449
     12 C12       -17.6435   44.3563   -5.3292 C.ar        1 N44       0.0564
     13 C13       -12.9270   46.5047    0.0291 C.ar        1 N44       0.0376
     14 C14       -19.8060   48.0721   -4.1691 C.ar        1 N44      -0.0211
     15 C15       -16.2667   44.3503   -4.9135 C.ar        1 N44       0.0219
     16 C16       -13.4286   46.1961   -1.2761 C.ar        1 N44      -0.0032
     17 C17       -10.6975   46.8528   -0.9236 C.ar        1 N44       0.1200
     18 C18       -11.5497   46.8130    0.1706 C.ar        1 N44       0.1327
     19 C19       -12.7640   42.1910   -1.3480 C.2         1 N44      -0.1125
     20 C20       -13.4849   43.3078   -1.4260 C.2         1 N44      -0.0447
     21 C21       -18.5363   45.4166   -5.1294 C.2         1 N44       0.2021
     22 C22       -13.7101   46.5262    1.2062 C.2         1 N44       0.0515
     23 C23        -9.5044   47.1121    0.8466 C.3         1 N44       0.1864
     24 C24       -19.0558   47.8258   -5.4346 C.3         1 N44       0.0638
     25 C25       -15.6375   45.3204   -3.9313 C.3         1 N44       0.0086
     26 C26       -14.8752   45.9177   -1.5745 C.3         1 N44       0.0003
     27 C27       -14.3623   43.5953   -2.5558 C.3         1 N44      -0.0011
     28 N28       -18.2154   46.6634   -5.4573 N.am        1 N44      -0.2760
     29 N29       -15.2519   44.8126   -2.5506 N.4         1 N44       0.2715
     30 O30       -14.4484   45.4636    1.5950 O.co2       1 N44      -0.5668
     31 O31       -19.6878   45.1769   -4.7834 O.2         1 N44      -0.3884
     32 O32       -13.5094   47.4982    2.1219 O.co2       1 N44      -0.5668
     33 O33        -9.4269   47.1632   -0.5860 O.3         1 N44      -0.2947
     34 O34       -10.8703   47.1174    1.2995 O.3         1 N44      -0.2890
     35 H1        -21.9040   48.5505   -0.9673 H           1 N44       0.0559
     36 H2        -17.6608   41.4080   -7.0179 H           1 N44       0.0572
     37 H3        -22.5717   49.6386   -3.0313 H           1 N44       0.0599
     38 H4        -19.8971   47.1853   -0.9142 H           1 N44       0.0599
     39 H5        -15.2915   41.5406   -6.5393 H           1 N44       0.0635
     40 H6        -19.1110   43.1955   -6.3771 H           1 N44       0.0651
     41 H7        -21.2754   49.3387   -5.0405 H           1 N44       0.0557
     42 H8        -18.5571   46.9110   -2.8984 H           1 N44       0.0557
     43 H9        -14.4077   43.3908   -5.3161 H           1 N44       0.0570
     44 H10       -12.8699   46.1328   -3.3272 H           1 N44       0.0445
     45 H11       -10.5538   46.6457   -3.0209 H           1 N44       0.0514
     46 H12       -12.1347   42.0525   -0.5841 H           1 N44       0.0292
     47 H13       -12.8572   41.4595   -2.0286 H           1 N44       0.0292
     48 H14       -13.3913   43.9907   -0.7052 H           1 N44       0.0725
     49 H15        -8.9786   47.9720    1.2650 H           1 N44       0.0973
     50 H16        -9.0096   46.2032    1.2045 H           1 N44       0.0973
     51 H17       -18.4215   48.6934   -5.6209 H           1 N44       0.0683
     52 H18       -19.7404   47.7392   -6.2814 H           1 N44       0.0683
     53 H19       -16.3395   46.1291   -3.7492 H           1 N44       0.0995
     54 H20       -14.7822   45.7807   -4.4272 H           1 N44       0.0995
     55 H21       -15.3104   46.8771   -1.8722 H           1 N44       0.0966
     56 H22       -15.4009   45.6593   -0.6590 H           1 N44       0.0966
     57 H23       -15.0309   42.7346   -2.6191 H           1 N44       0.0998
     58 H24       -13.7400   43.6153   -3.4541 H           1 N44       0.0998
     59 H25       -17.3114   46.8077   -5.7768 H           1 N44       0.1869
     60 H26       -16.1409   44.4662   -2.1767 H           1 N44       0.2082
@<TRIPOS>BOND
     1     3     1  ar
     2     4     1  ar
     3     5     2  ar
     4     6     2  ar
     5     7     3  ar
     6     8     4  ar
     7     9     5  ar
     8    12     6  ar
     9    14     7  ar
    10    14     8  ar
    11    15     9  ar
    12    10    11  ar
    13    16    10  ar
    14    11    17  ar
    15    15    12  ar
    16    12    21   1
    17    16    13  ar
    18    13    18  ar
    19    13    22   1
    20    24    14   1
    21    25    15   1
    22    26    16   1
    23    18    17  ar
    24    17    33   1
    25    18    34   1
    26    20    19   2
    27    27    20   1
    28    21    28  am
    29    21    31   2
    30    22    30  ar
    31    22    32  ar
    32    23    33   1
    33    34    23   1
    34    28    24   1
    35    29    25   1
    36    29    26   1
    37    27    29   1
    38     1    35   1
    39     2    36   1
    40     3    37   1
    41     4    38   1
    42     5    39   1
    43     6    40   1
    44     7    41   1
    45     8    42   1
    46     9    43   1
    47    10    44   1
    48    11    45   1
    49    19    46   1
    50    19    47   1
    51    20    48   1
    52    23    49   1
    53    23    50   1
    54    24    51   1
    55    24    52   1
    56    25    53   1
    57    25    54   1
    58    26    55   1
    59    26    56   1
    60    27    57   1
    61    27    58   1
    62    28    59   1
    63    29    60   1
@<TRIPOS>SUBSTRUCTURE
     1  N44      1

