@<TRIPOS>MOLECULE
3zsx_ligand_088
    60    63
SMALL
GAST_HUCK
****
This file was generated by PARSER (from files_GN.cpp)

@<TRIPOS>ATOM
      1 C1        -11.7914   44.6017    1.9574 C.ar        1 N44      -0.0687
      2 C2        -19.2244   45.3939   -1.3429 C.ar        1 N44      -0.0630
      3 C3        -11.0222   44.4429    0.7910 C.ar        1 N44      -0.0685
      4 C4        -13.0474   45.2321    1.8845 C.ar        1 N44      -0.0685
      5 C5        -19.7195   46.6149   -1.8188 C.ar        1 N44      -0.0640
      6 C6        -17.8786   45.0588   -1.5520 C.ar        1 N44      -0.0483
      7 C7        -11.5104   44.9073   -0.4459 C.ar        1 N44      -0.0584
      8 C8        -13.5305   45.6962    0.6483 C.ar        1 N44      -0.0584
      9 C9        -18.8631   47.4962   -2.4976 C.ar        1 N44      -0.0493
     10 C10       -19.7528   48.3605   -6.4418 C.ar        1 N44      -0.0712
     11 C11       -20.9922   47.7315   -6.6402 C.ar        1 N44      -0.0449
     12 C12       -16.9910   45.9340   -2.2376 C.ar        1 N44       0.0564
     13 C13       -18.7245   46.2221   -5.7647 C.ar        1 N44       0.0376
     14 C14       -12.7796   45.5250   -0.5399 C.ar        1 N44      -0.0211
     15 C15       -17.5021   47.1746   -2.7404 C.ar        1 N44       0.0219
     16 C16       -18.6023   47.6363   -6.0123 C.ar        1 N44      -0.0032
     17 C17       -21.1074   46.3684   -6.3546 C.ar        1 N44       0.1200
     18 C18       -20.0131   45.6420   -5.9053 C.ar        1 N44       0.1327
     19 C19       -18.5887   51.8163   -5.1702 C.2         1 N44      -0.1125
     20 C20       -17.3165   51.4328   -5.3307 C.2         1 N44      -0.0447
     21 C21       -15.6557   45.5258   -2.3352 C.2         1 N44       0.2021
     22 C22       -17.6550   45.3539   -5.4111 C.2         1 N44       0.0515
     23 C23       -21.7841   44.3650   -5.9307 C.3         1 N44       0.1864
     24 C24       -13.2690   45.9811   -1.8763 C.3         1 N44       0.0638
     25 C25       -16.6484   48.2080   -3.4162 C.3         1 N44       0.0086
     26 C26       -17.3594   48.4580   -5.8286 C.3         1 N44       0.0003
     27 C27       -16.6645   50.4733   -4.4571 C.3         1 N44      -0.0011
     28 N28       -14.6639   46.3147   -1.9356 N.am        1 N44      -0.2760
     29 N29       -17.2878   49.0964   -4.4578 N.4         1 N44       0.2715
     30 O30       -17.8732   44.0902   -4.9847 O.co2       1 N44      -0.5668
     31 O31       -15.4144   44.3790   -2.7038 O.2         1 N44      -0.3884
     32 O32       -16.3607   45.6491   -5.6924 O.co2       1 N44      -0.5668
     33 O33       -22.2161   45.6140   -6.4937 O.3         1 N44      -0.2947
     34 O34       -20.3643   44.3529   -5.7095 O.3         1 N44      -0.2890
     35 H1        -11.4432   44.2593    2.8525 H           1 N44       0.0559
     36 H2        -19.8365   44.7537   -0.8293 H           1 N44       0.0572
     37 H3        -10.1100   43.9846    0.8426 H           1 N44       0.0599
     38 H4        -13.6083   45.3448    2.7287 H           1 N44       0.0599
     39 H5        -20.7005   46.8605   -1.6572 H           1 N44       0.0635
     40 H6        -17.5421   44.1742   -1.1584 H           1 N44       0.0651
     41 H7        -10.9317   44.7798   -1.2815 H           1 N44       0.0557
     42 H8        -14.4446   46.1546    0.6294 H           1 N44       0.0557
     43 H9        -19.2513   48.3914   -2.8018 H           1 N44       0.0570
     44 H10       -19.6907   49.3625   -6.6492 H           1 N44       0.0445
     45 H11       -21.7998   48.2585   -6.9853 H           1 N44       0.0514
     46 H12       -18.9843   52.5001   -5.7664 H           1 N44       0.0292
     47 H13       -19.1531   51.4247   -4.4515 H           1 N44       0.0292
     48 H14       -16.7862   51.8469   -6.0673 H           1 N44       0.0725
     49 H15       -22.0541   43.5471   -6.6015 H           1 N44       0.0973
     50 H16       -22.2957   44.2086   -4.9773 H           1 N44       0.0973
     51 H17       -13.0336   45.2229   -2.6268 H           1 N44       0.0683
     52 H18       -12.7096   46.8747   -2.1540 H           1 N44       0.0683
     53 H19       -15.7832   47.7354   -3.8835 H           1 N44       0.0995
     54 H20       -16.2554   48.7990   -2.5811 H           1 N44       0.0995
     55 H21       -17.3606   49.2196   -6.6158 H           1 N44       0.0966
     56 H22       -16.4523   47.8966   -6.0430 H           1 N44       0.0966
     57 H23       -16.7217   50.9072   -3.4525 H           1 N44       0.0998
     58 H24       -15.5974   50.4001   -4.7076 H           1 N44       0.0998
     59 H25       -14.9126   47.1839   -1.5826 H           1 N44       0.1869
     60 H26       -18.2524   49.2540   -4.1633 H           1 N44       0.2082
@<TRIPOS>BOND
     1     3     1  ar
     2     4     1  ar
     3     5     2  ar
     4     6     2  ar
     5     7     3  ar
     6     8     4  ar
     7     9     5  ar
     8    12     6  ar
     9    14     7  ar
    10    14     8  ar
    11    15     9  ar
    12    10    11  ar
    13    16    10  ar
    14    11    17  ar
    15    15    12  ar
    16    12    21   1
    17    16    13  ar
    18    13    18  ar
    19    13    22   1
    20    24    14   1
    21    25    15   1
    22    26    16   1
    23    18    17  ar
    24    17    33   1
    25    18    34   1
    26    20    19   2
    27    27    20   1
    28    21    28  am
    29    21    31   2
    30    22    30  ar
    31    22    32  ar
    32    23    33   1
    33    34    23   1
    34    28    24   1
    35    29    25   1
    36    29    26   1
    37    27    29   1
    38     1    35   1
    39     2    36   1
    40     3    37   1
    41     4    38   1
    42     5    39   1
    43     6    40   1
    44     7    41   1
    45     8    42   1
    46     9    43   1
    47    10    44   1
    48    11    45   1
    49    19    46   1
    50    19    47   1
    51    20    48   1
    52    23    49   1
    53    23    50   1
    54    24    51   1
    55    24    52   1
    56    25    53   1
    57    25    54   1
    58    26    55   1
    59    26    56   1
    60    27    57   1
    61    27    58   1
    62    28    59   1
    63    29    60   1
@<TRIPOS>SUBSTRUCTURE
     1  N44      1

