@<TRIPOS>MOLECULE
3zsx_ligand_073
    60    63
SMALL
GAST_HUCK
****
This file was generated by PARSER (from files_GN.cpp)

@<TRIPOS>ATOM
      1 C1        -11.7082   44.3787   -1.9216 C.ar        1 N44      -0.0687
      2 C2        -20.1374   46.3405   -1.1272 C.ar        1 N44      -0.0630
      3 C3        -12.4850   43.3771   -1.3087 C.ar        1 N44      -0.0685
      4 C4        -12.2542   45.1329   -2.9790 C.ar        1 N44      -0.0685
      5 C5        -20.3983   47.6709   -1.4785 C.ar        1 N44      -0.0640
      6 C6        -18.9314   45.7431   -1.5211 C.ar        1 N44      -0.0483
      7 C7        -13.8002   43.1386   -1.7445 C.ar        1 N44      -0.0584
      8 C8        -13.5685   44.8842   -3.4210 C.ar        1 N44      -0.0584
      9 C9        -19.4684   48.3863   -2.2497 C.ar        1 N44      -0.0493
     10 C10       -17.0305   51.3787   -5.2069 C.ar        1 N44      -0.0712
     11 C11       -16.6964   52.6900   -4.8222 C.ar        1 N44      -0.0449
     12 C12       -17.9673   46.4496   -2.2970 C.ar        1 N44       0.0564
     13 C13       -14.7294   50.9542   -5.9240 C.ar        1 N44       0.0376
     14 C14       -14.3644   43.8919   -2.8047 C.ar        1 N44      -0.0211
     15 C15       -18.2494   47.7987   -2.6781 C.ar        1 N44       0.0219
     16 C16       -16.0551   50.4599   -5.6768 C.ar        1 N44      -0.0032
     17 C17       -15.3697   53.1073   -4.9340 C.ar        1 N44       0.1200
     18 C18       -14.4104   52.2667   -5.4898 C.ar        1 N44       0.1327
     19 C19       -19.3563   45.9575   -5.7846 C.2         1 N44      -0.1125
     20 C20       -19.1505   47.1491   -6.3657 C.2         1 N44      -0.0447
     21 C21       -16.7606   45.8047   -2.5638 C.2         1 N44       0.2021
     22 C22       -13.7100   50.1998   -6.5842 C.2         1 N44       0.0515
     23 C23       -13.4549   54.0152   -4.6478 C.3         1 N44       0.1864
     24 C24       -15.7473   43.6241   -3.2916 C.3         1 N44       0.0638
     25 C25       -17.3488   48.6247   -3.5453 C.3         1 N44       0.0086
     26 C26       -16.4066   49.0060   -5.8535 C.3         1 N44       0.0003
     27 C27       -18.8476   48.3603   -5.6139 C.3         1 N44      -0.0011
     28 N28       -16.7828   44.5990   -3.1175 N.am        1 N44      -0.2760
     29 N29       -17.4585   48.3138   -5.0168 N.4         1 N44       0.2715
     30 O30       -12.4048   50.5550   -6.5641 O.co2       1 N44      -0.5668
     31 O31       -15.7424   46.2908   -2.0994 O.2         1 N44      -0.3884
     32 O32       -14.0425   49.2627   -7.5052 O.co2       1 N44      -0.5668
     33 O33       -14.8655   54.2997   -4.5720 O.3         1 N44      -0.2947
     34 O34       -13.2198   52.9144   -5.5385 O.3         1 N44      -0.2890
     35 H1        -10.7576   44.5583   -1.6025 H           1 N44       0.0559
     36 H2        -20.8063   45.8230   -0.5559 H           1 N44       0.0572
     37 H3        -12.0888   42.8247   -0.5429 H           1 N44       0.0599
     38 H4        -11.6907   45.8645   -3.4188 H           1 N44       0.0599
     39 H5        -21.2727   48.1190   -1.1839 H           1 N44       0.0635
     40 H6        -18.7467   44.7891   -1.2001 H           1 N44       0.0651
     41 H7        -14.3452   42.4103   -1.2797 H           1 N44       0.0557
     42 H8        -13.9450   45.4372   -4.1933 H           1 N44       0.0557
     43 H9        -19.6973   49.3539   -2.4984 H           1 N44       0.0570
     44 H10       -18.0050   51.1092   -5.0993 H           1 N44       0.0445
     45 H11       -17.4046   53.3201   -4.4293 H           1 N44       0.0514
     46 H12       -19.5815   45.1642   -6.3412 H           1 N44       0.0292
     47 H13       -19.2970   45.8542   -4.7921 H           1 N44       0.0292
     48 H14       -19.2517   47.2160   -7.3564 H           1 N44       0.0725
     49 H15       -13.0856   53.7629   -3.6457 H           1 N44       0.0973
     50 H16       -12.9211   54.9001   -4.9964 H           1 N44       0.0973
     51 H17       -16.1301   42.7215   -2.8063 H           1 N44       0.0683
     52 H18       -15.6941   43.3871   -4.3584 H           1 N44       0.0683
     53 H19       -16.3168   48.4641   -3.2102 H           1 N44       0.0995
     54 H20       -17.5430   49.6890   -3.3755 H           1 N44       0.0995
     55 H21       -15.4941   48.4271   -5.6662 H           1 N44       0.0966
     56 H22       -16.6455   48.8540   -6.9144 H           1 N44       0.0966
     57 H23       -19.6209   48.4847   -4.8465 H           1 N44       0.0998
     58 H24       -18.9538   49.2098   -6.3020 H           1 N44       0.0998
     59 H25       -17.6560   44.3059   -3.4292 H           1 N44       0.1869
     60 H26       -17.1929   47.3267   -5.0643 H           1 N44       0.2082
@<TRIPOS>BOND
     1     3     1  ar
     2     4     1  ar
     3     5     2  ar
     4     6     2  ar
     5     7     3  ar
     6     8     4  ar
     7     9     5  ar
     8    12     6  ar
     9    14     7  ar
    10    14     8  ar
    11    15     9  ar
    12    10    11  ar
    13    16    10  ar
    14    11    17  ar
    15    15    12  ar
    16    12    21   1
    17    16    13  ar
    18    13    18  ar
    19    13    22   1
    20    24    14   1
    21    25    15   1
    22    26    16   1
    23    18    17  ar
    24    17    33   1
    25    18    34   1
    26    20    19   2
    27    27    20   1
    28    21    28  am
    29    21    31   2
    30    22    30  ar
    31    22    32  ar
    32    23    33   1
    33    34    23   1
    34    28    24   1
    35    29    25   1
    36    29    26   1
    37    27    29   1
    38     1    35   1
    39     2    36   1
    40     3    37   1
    41     4    38   1
    42     5    39   1
    43     6    40   1
    44     7    41   1
    45     8    42   1
    46     9    43   1
    47    10    44   1
    48    11    45   1
    49    19    46   1
    50    19    47   1
    51    20    48   1
    52    23    49   1
    53    23    50   1
    54    24    51   1
    55    24    52   1
    56    25    53   1
    57    25    54   1
    58    26    55   1
    59    26    56   1
    60    27    57   1
    61    27    58   1
    62    28    59   1
    63    29    60   1
@<TRIPOS>SUBSTRUCTURE
     1  N44      1

