@<TRIPOS>MOLECULE
3zsx_ligand_015
    60    63
SMALL
GAST_HUCK
****
This file was generated by PARSER (from files_GN.cpp)

@<TRIPOS>ATOM
      1 C1        -11.2040   48.6500    4.3312 C.ar        1 N44      -0.0687
      2 C2        -12.4653   43.3671   -0.9809 C.ar        1 N44      -0.0630
      3 C3        -12.1207   49.6949    4.1249 C.ar        1 N44      -0.0685
      4 C4        -11.0954   47.6182    3.3827 C.ar        1 N44      -0.0685
      5 C5        -13.6018   42.8433   -1.6104 C.ar        1 N44      -0.0640
      6 C6        -12.3572   44.7525   -0.7783 C.ar        1 N44      -0.0483
      7 C7        -12.9259   49.7107    2.9695 C.ar        1 N44      -0.0584
      8 C8        -11.8968   47.6400    2.2267 C.ar        1 N44      -0.0584
      9 C9        -14.6393   43.6984   -2.0133 C.ar        1 N44      -0.0493
     10 C10       -16.7787   49.4702   -3.1115 C.ar        1 N44      -0.0712
     11 C11       -16.4844   50.8404   -2.9950 C.ar        1 N44      -0.0449
     12 C12       -13.3911   45.6305   -1.1962 C.ar        1 N44       0.0564
     13 C13       -15.6817   49.3857   -5.3072 C.ar        1 N44       0.0376
     14 C14       -12.8390   48.6773    2.0054 C.ar        1 N44      -0.0211
     15 C15       -14.5527   45.1054   -1.8423 C.ar        1 N44       0.0219
     16 C16       -16.3946   48.7215   -4.2565 C.ar        1 N44      -0.0032
     17 C17       -15.7905   51.4725   -4.0324 C.ar        1 N44       0.1200
     18 C18       -15.3997   50.7668   -5.1594 C.ar        1 N44       0.1327
     19 C19       -15.9459   43.1421   -5.6800 C.2         1 N44      -0.1125
     20 C20       -16.2113   44.2709   -5.0052 C.2         1 N44      -0.0447
     21 C21       -13.2350   46.9734   -0.9085 C.2         1 N44       0.2021
     22 C22       -15.2490   48.7431   -6.4927 C.2         1 N44       0.0515
     23 C23       -14.9917   52.8850   -5.4430 C.3         1 N44       0.1864
     24 C24       -13.6657   48.7437    0.7653 C.3         1 N44       0.0638
     25 C25       -15.6718   45.9545   -2.3777 C.3         1 N44       0.0086
     26 C26       -16.7240   47.2604   -4.2703 C.3         1 N44       0.0003
     27 C27       -15.2206   45.3219   -4.8106 C.3         1 N44      -0.0011
     28 N28       -13.8664   47.4651    0.1524 N.am        1 N44      -0.2760
     29 N29       -15.5607   46.4018   -3.8175 N.4         1 N44       0.2715
     30 O30       -14.0939   49.0973   -7.0985 O.co2       1 N44      -0.5668
     31 O31       -12.3590   47.5938   -1.4977 O.2         1 N44      -0.3884
     32 O32       -16.1265   48.0652   -7.2643 O.co2       1 N44      -0.5668
     33 O33       -15.4185   52.7656   -4.0771 O.3         1 N44      -0.2947
     34 O34       -14.7694   51.5893   -6.0295 O.3         1 N44      -0.2890
     35 H1        -10.6065   48.6458    5.1619 H           1 N44       0.0559
     36 H2        -11.7165   42.7427   -0.6672 H           1 N44       0.0572
     37 H3        -12.1921   50.4505    4.8115 H           1 N44       0.0599
     38 H4        -10.4258   46.8578    3.5281 H           1 N44       0.0599
     39 H5        -13.6668   41.8384   -1.7759 H           1 N44       0.0635
     40 H6        -11.5107   45.1095   -0.3174 H           1 N44       0.0651
     41 H7        -13.5758   50.4888    2.8382 H           1 N44       0.0557
     42 H8        -11.7814   46.8871    1.5472 H           1 N44       0.0557
     43 H9        -15.4604   43.2813   -2.4527 H           1 N44       0.0570
     44 H10       -17.2775   49.0211   -2.3411 H           1 N44       0.0445
     45 H11       -16.7685   51.3687   -2.1690 H           1 N44       0.0514
     46 H12       -16.6527   42.4581   -5.8033 H           1 N44       0.0292
     47 H13       -15.0478   42.9695   -6.0587 H           1 N44       0.0292
     48 H14       -17.1247   44.3891   -4.6325 H           1 N44       0.0725
     49 H15       -14.0710   53.4712   -5.4886 H           1 N44       0.0973
     50 H16       -15.7625   53.4137   -6.0129 H           1 N44       0.0973
     51 H17       -13.2014   49.4618    0.0850 H           1 N44       0.0683
     52 H18       -14.6640   49.1169    1.0064 H           1 N44       0.0683
     53 H19       -15.7550   46.8461   -1.7507 H           1 N44       0.0995
     54 H20       -16.6160   45.4219   -2.2368 H           1 N44       0.0995
     55 H21       -17.0681   46.9980   -5.2711 H           1 N44       0.0966
     56 H22       -17.6110   47.0721   -3.6535 H           1 N44       0.0966
     57 H23       -15.0316   45.7822   -5.7867 H           1 N44       0.0998
     58 H24       -14.2695   44.8701   -4.5106 H           1 N44       0.0998
     59 H25       -14.4760   46.8660    0.6107 H           1 N44       0.1869
     60 H26       -14.7468   47.0244   -3.8308 H           1 N44       0.2082
@<TRIPOS>BOND
     1     3     1  ar
     2     4     1  ar
     3     5     2  ar
     4     6     2  ar
     5     7     3  ar
     6     8     4  ar
     7     9     5  ar
     8    12     6  ar
     9    14     7  ar
    10    14     8  ar
    11    15     9  ar
    12    10    11  ar
    13    16    10  ar
    14    11    17  ar
    15    15    12  ar
    16    12    21   1
    17    16    13  ar
    18    13    18  ar
    19    13    22   1
    20    24    14   1
    21    25    15   1
    22    26    16   1
    23    18    17  ar
    24    17    33   1
    25    18    34   1
    26    20    19   2
    27    27    20   1
    28    21    28  am
    29    21    31   2
    30    22    30  ar
    31    22    32  ar
    32    23    33   1
    33    34    23   1
    34    28    24   1
    35    29    25   1
    36    29    26   1
    37    27    29   1
    38     1    35   1
    39     2    36   1
    40     3    37   1
    41     4    38   1
    42     5    39   1
    43     6    40   1
    44     7    41   1
    45     8    42   1
    46     9    43   1
    47    10    44   1
    48    11    45   1
    49    19    46   1
    50    19    47   1
    51    20    48   1
    52    23    49   1
    53    23    50   1
    54    24    51   1
    55    24    52   1
    56    25    53   1
    57    25    54   1
    58    26    55   1
    59    26    56   1
    60    27    57   1
    61    27    58   1
    62    28    59   1
    63    29    60   1
@<TRIPOS>SUBSTRUCTURE
     1  N44      1

