@<TRIPOS>MOLECULE
3zsx_ligand_046
    60    63
SMALL
GAST_HUCK
****
This file was generated by PARSER (from files_GN.cpp)

@<TRIPOS>ATOM
      1 C1         -6.9380   41.8200    0.4942 C.ar        1 N44      -0.0687
      2 C2        -13.3812   45.9492    1.1693 C.ar        1 N44      -0.0630
      3 C3         -7.9349   40.8481    0.6963 C.ar        1 N44      -0.0685
      4 C4         -7.1410   42.8438   -0.4458 C.ar        1 N44      -0.0685
      5 C5        -14.1556   46.9138    0.5236 C.ar        1 N44      -0.0640
      6 C6        -12.8706   44.8643    0.4395 C.ar        1 N44      -0.0483
      7 C7         -9.1339   40.9068   -0.0380 C.ar        1 N44      -0.0584
      8 C8         -8.3370   42.8988   -1.1866 C.ar        1 N44      -0.0584
      9 C9        -14.4410   46.7703   -0.8423 C.ar        1 N44      -0.0493
     10 C10       -16.0206   47.7510   -5.6053 C.ar        1 N44      -0.0712
     11 C11       -16.2872   48.3343   -6.8611 C.ar        1 N44      -0.0449
     12 C12       -13.1380   44.6956   -0.9492 C.ar        1 N44       0.0564
     13 C13       -18.3325   46.9646   -5.4558 C.ar        1 N44       0.0376
     14 C14        -9.3531   41.9326   -0.9881 C.ar        1 N44      -0.0211
     15 C15       -13.9727   45.6643   -1.6035 C.ar        1 N44       0.0219
     16 C16       -17.0303   47.0643   -4.8749 C.ar        1 N44      -0.0032
     17 C17       -17.5754   48.2177   -7.4053 C.ar        1 N44       0.1200
     18 C18       -18.5784   47.5526   -6.7160 C.ar        1 N44       0.1327
     19 C19       -17.0659   44.2267   -0.8397 C.2         1 N44      -0.1125
     20 C20       -16.3128   43.6556   -1.7870 C.2         1 N44      -0.0447
     21 C21       -12.5689   43.5783   -1.5694 C.2         1 N44       0.2021
     22 C22       -19.4146   46.3225   -4.8416 C.2         1 N44       0.0515
     23 C23       -19.4209   48.4782   -8.4901 C.3         1 N44       0.1864
     24 C24       -10.6423   42.0439   -1.7166 C.3         1 N44       0.0638
     25 C25       -14.2914   45.6626   -3.0771 C.3         1 N44       0.0086
     26 C26       -16.6753   46.5433   -3.5118 C.3         1 N44       0.0003
     27 C27       -16.2726   44.0501   -3.1891 C.3         1 N44      -0.0011
     28 N28       -11.3264   43.2121   -1.2642 N.am        1 N44      -0.2760
     29 N29       -15.7002   45.3912   -3.5574 N.4         1 N44       0.2715
     30 O30       -20.1093   46.9680   -3.8783 O.co2       1 N44      -0.5668
     31 O31       -13.2424   42.8882   -2.3222 O.2         1 N44      -0.3884
     32 O32       -19.4913   44.9763   -4.9074 O.co2       1 N44      -0.5668
     33 O33       -18.0069   48.7328   -8.5753 O.3         1 N44      -0.2947
     34 O34       -19.7359   47.5692   -7.4177 O.3         1 N44      -0.2890
     35 H1         -6.0698   41.7811    1.0332 H           1 N44       0.0559
     36 H2        -13.1780   46.0342    2.1661 H           1 N44       0.0572
     37 H3         -7.7946   40.1073    1.3868 H           1 N44       0.0599
     38 H4         -6.4205   43.5539   -0.5907 H           1 N44       0.0599
     39 H5        -14.5031   47.7247    1.0378 H           1 N44       0.0635
     40 H6        -12.3149   44.1824    0.9633 H           1 N44       0.0651
     41 H7         -9.8528   40.2015    0.1387 H           1 N44       0.0557
     42 H8         -8.4675   43.6560   -1.8622 H           1 N44       0.0557
     43 H9        -14.9752   47.5210   -1.2834 H           1 N44       0.0570
     44 H10       -15.0812   47.8586   -5.2134 H           1 N44       0.0445
     45 H11       -15.5564   48.8399   -7.3669 H           1 N44       0.0514
     46 H12       -17.0278   43.8870    0.0899 H           1 N44       0.0292
     47 H13       -17.6799   44.9697   -1.0394 H           1 N44       0.0292
     48 H14       -15.7553   42.8793   -1.5130 H           1 N44       0.0725
     49 H15       -19.7715   48.0564   -9.4339 H           1 N44       0.0973
     50 H16       -19.9460   49.4234   -8.3242 H           1 N44       0.0973
     51 H17       -11.2716   41.1687   -1.5364 H           1 N44       0.0683
     52 H18       -10.4547   42.1073   -2.7900 H           1 N44       0.0683
     53 H19       -13.6459   44.9539   -3.5987 H           1 N44       0.0995
     54 H20       -13.9720   46.6235   -3.4752 H           1 N44       0.0995
     55 H21       -17.5773   46.2673   -2.9705 H           1 N44       0.0966
     56 H22       -16.2579   47.3998   -2.9624 H           1 N44       0.0966
     57 H23       -17.2846   43.9636   -3.5985 H           1 N44       0.0998
     58 H24       -15.6822   43.3023   -3.7308 H           1 N44       0.0998
     59 H25       -10.8389   43.7884   -0.6492 H           1 N44       0.1869
     60 H26       -15.5467   45.2827   -4.5677 H           1 N44       0.2082
@<TRIPOS>BOND
     1     3     1  ar
     2     4     1  ar
     3     5     2  ar
     4     6     2  ar
     5     7     3  ar
     6     8     4  ar
     7     9     5  ar
     8    12     6  ar
     9    14     7  ar
    10    14     8  ar
    11    15     9  ar
    12    10    11  ar
    13    16    10  ar
    14    11    17  ar
    15    15    12  ar
    16    12    21   1
    17    16    13  ar
    18    13    18  ar
    19    13    22   1
    20    24    14   1
    21    25    15   1
    22    26    16   1
    23    18    17  ar
    24    17    33   1
    25    18    34   1
    26    20    19   2
    27    27    20   1
    28    21    28  am
    29    21    31   2
    30    22    30  ar
    31    22    32  ar
    32    23    33   1
    33    34    23   1
    34    28    24   1
    35    29    25   1
    36    29    26   1
    37    27    29   1
    38     1    35   1
    39     2    36   1
    40     3    37   1
    41     4    38   1
    42     5    39   1
    43     6    40   1
    44     7    41   1
    45     8    42   1
    46     9    43   1
    47    10    44   1
    48    11    45   1
    49    19    46   1
    50    19    47   1
    51    20    48   1
    52    23    49   1
    53    23    50   1
    54    24    51   1
    55    24    52   1
    56    25    53   1
    57    25    54   1
    58    26    55   1
    59    26    56   1
    60    27    57   1
    61    27    58   1
    62    28    59   1
    63    29    60   1
@<TRIPOS>SUBSTRUCTURE
     1  N44      1

