@<TRIPOS>MOLECULE
3zsx_ligand_007
    60    63
SMALL
GAST_HUCK
****
This file was generated by PARSER (from files_GN.cpp)

@<TRIPOS>ATOM
      1 C1        -17.1230   48.8983  -10.8000 C.ar        1 N44      -0.0687
      2 C2        -16.0476   50.9655   -3.1884 C.ar        1 N44      -0.0630
      3 C3        -18.1237   47.9189  -10.7028 C.ar        1 N44      -0.0685
      4 C4        -16.7018   49.5856   -9.6516 C.ar        1 N44      -0.0685
      5 C5        -15.7558   50.3721   -1.9512 C.ar        1 N44      -0.0640
      6 C6        -16.5297   50.1759   -4.2439 C.ar        1 N44      -0.0483
      7 C7        -18.6959   47.6135   -9.4537 C.ar        1 N44      -0.0584
      8 C8        -17.2704   49.2782   -8.3930 C.ar        1 N44      -0.0584
      9 C9        -15.9165   48.9834   -1.7833 C.ar        1 N44      -0.0493
     10 C10       -12.3347   44.8320   -2.2562 C.ar        1 N44      -0.0712
     11 C11       -11.3227   43.9435   -1.8402 C.ar        1 N44      -0.0449
     12 C12       -16.7261   48.7779   -4.0888 C.ar        1 N44       0.0564
     13 C13       -12.9091   45.3089    0.0817 C.ar        1 N44       0.0376
     14 C14       -18.2651   48.2741   -8.2704 C.ar        1 N44      -0.0211
     15 C15       -16.3928   48.1579   -2.8360 C.ar        1 N44       0.0219
     16 C16       -13.1639   45.5110   -1.3120 C.ar        1 N44      -0.0032
     17 C17       -11.1221   43.7428   -0.4706 C.ar        1 N44       0.1200
     18 C18       -11.8810   44.4209    0.4669 C.ar        1 N44       0.1327
     19 C19       -16.3154   43.4874   -4.1976 C.2         1 N44      -0.1125
     20 C20       -15.4643   43.9255   -3.2607 C.2         1 N44      -0.0447
     21 C21       -17.2126   48.0848   -5.1899 C.2         1 N44       0.2021
     22 C22       -13.6436   45.9499    1.0837 C.2         1 N44       0.0515
     23 C23       -10.3222   43.3093    1.4799 C.3         1 N44       0.1864
     24 C24       -18.8962   47.8984   -6.9762 C.3         1 N44       0.0638
     25 C25       -16.6601   46.7143   -2.5344 C.3         1 N44       0.0086
     26 C26       -14.2552   46.4075   -1.8264 C.3         1 N44       0.0003
     27 C27       -15.8629   44.4304   -1.9525 C.3         1 N44      -0.0011
     28 N28       -18.3348   48.4700   -5.7931 N.am        1 N44      -0.2760
     29 N29       -15.6790   45.9115   -1.7147 N.4         1 N44       0.2715
     30 O30       -14.7041   45.3130    1.6636 O.co2       1 N44      -0.5668
     31 O31       -16.5194   47.2014   -5.6829 O.2         1 N44      -0.3884
     32 O32       -13.0844   46.9589    1.7764 O.co2       1 N44      -0.5668
     33 O33       -10.2234   42.9233    0.0976 O.3         1 N44      -0.2947
     34 O34       -11.4984   44.1012    1.7211 O.3         1 N44      -0.2890
     35 H1        -16.7095   49.1153  -11.7093 H           1 N44       0.0559
     36 H2        -15.9117   51.9692   -3.3242 H           1 N44       0.0572
     37 H3        -18.4401   47.4261  -11.5402 H           1 N44       0.0599
     38 H4        -15.9850   50.3098   -9.7184 H           1 N44       0.0599
     39 H5        -15.4237   50.9481   -1.1788 H           1 N44       0.0635
     40 H6        -16.7206   50.6345   -5.1360 H           1 N44       0.0651
     41 H7        -19.4268   46.8960   -9.4047 H           1 N44       0.0557
     42 H8        -16.9491   49.7969   -7.5788 H           1 N44       0.0557
     43 H9        -15.6630   48.5750   -0.8796 H           1 N44       0.0570
     44 H10       -12.4736   44.9699   -3.2564 H           1 N44       0.0445
     45 H11       -10.7537   43.4480   -2.5300 H           1 N44       0.0514
     46 H12       -15.9706   43.1350   -5.0586 H           1 N44       0.0292
     47 H13       -17.2953   43.5144   -4.0547 H           1 N44       0.0292
     48 H14       -14.4904   43.8793   -3.4663 H           1 N44       0.0725
     49 H15        -9.4352   43.8901    1.7480 H           1 N44       0.0973
     50 H16       -10.3540   42.4174    2.1087 H           1 N44       0.0973
     51 H17       -18.8793   46.8080   -6.8669 H           1 N44       0.0683
     52 H18       -19.9435   48.2050   -7.0161 H           1 N44       0.0683
     53 H19       -16.8090   46.1747   -3.4640 H           1 N44       0.0995
     54 H20       -17.6259   46.6983   -2.0186 H           1 N44       0.0995
     55 H21       -14.0676   46.6635   -2.8793 H           1 N44       0.0966
     56 H22       -14.1910   47.3402   -1.2563 H           1 N44       0.0966
     57 H23       -15.2750   43.9000   -1.2062 H           1 N44       0.0998
     58 H24       -16.8993   44.1432   -1.7432 H           1 N44       0.0998
     59 H25       -18.8383   49.1882   -5.3759 H           1 N44       0.1869
     60 H26       -15.9822   46.0598   -0.7487 H           1 N44       0.2082
@<TRIPOS>BOND
     1     3     1  ar
     2     4     1  ar
     3     5     2  ar
     4     6     2  ar
     5     7     3  ar
     6     8     4  ar
     7     9     5  ar
     8    12     6  ar
     9    14     7  ar
    10    14     8  ar
    11    15     9  ar
    12    10    11  ar
    13    16    10  ar
    14    11    17  ar
    15    15    12  ar
    16    12    21   1
    17    16    13  ar
    18    13    18  ar
    19    13    22   1
    20    24    14   1
    21    25    15   1
    22    26    16   1
    23    18    17  ar
    24    17    33   1
    25    18    34   1
    26    20    19   2
    27    27    20   1
    28    21    28  am
    29    21    31   2
    30    22    30  ar
    31    22    32  ar
    32    23    33   1
    33    34    23   1
    34    28    24   1
    35    29    25   1
    36    29    26   1
    37    27    29   1
    38     1    35   1
    39     2    36   1
    40     3    37   1
    41     4    38   1
    42     5    39   1
    43     6    40   1
    44     7    41   1
    45     8    42   1
    46     9    43   1
    47    10    44   1
    48    11    45   1
    49    19    46   1
    50    19    47   1
    51    20    48   1
    52    23    49   1
    53    23    50   1
    54    24    51   1
    55    24    52   1
    56    25    53   1
    57    25    54   1
    58    26    55   1
    59    26    56   1
    60    27    57   1
    61    27    58   1
    62    28    59   1
    63    29    60   1
@<TRIPOS>SUBSTRUCTURE
     1  N44      1

