@<TRIPOS>MOLECULE
3zsx_ligand_048
    60    63
SMALL
GAST_HUCK
****
This file was generated by PARSER (from files_GN.cpp)

@<TRIPOS>ATOM
      1 C1        -18.5534   47.8909  -10.4073 C.ar        1 N44      -0.0687
      2 C2        -16.8760   43.1481   -4.4248 C.ar        1 N44      -0.0630
      3 C3        -19.6384   48.2772   -9.6009 C.ar        1 N44      -0.0685
      4 C4        -17.2804   47.7342   -9.8373 C.ar        1 N44      -0.0685
      5 C5        -16.6370   43.1659   -3.0440 C.ar        1 N44      -0.0640
      6 C6        -16.8774   44.3510   -5.1494 C.ar        1 N44      -0.0483
      7 C7        -19.4466   48.5032   -8.2227 C.ar        1 N44      -0.0584
      8 C8        -17.0913   47.9606   -8.4619 C.ar        1 N44      -0.0584
      9 C9        -16.3969   44.3833   -2.3874 C.ar        1 N44      -0.0493
     10 C10       -12.2181   49.1065   -0.3535 C.ar        1 N44      -0.0712
     11 C11       -10.8939   49.1765    0.1151 C.ar        1 N44      -0.0449
     12 C12       -16.6005   45.5808   -4.5101 C.ar        1 N44       0.0564
     13 C13       -12.5374   46.9669    0.7882 C.ar        1 N44       0.0376
     14 C14       -18.1744   48.3432   -7.6318 C.ar        1 N44      -0.0211
     15 C15       -16.3296   45.5986   -3.1091 C.ar        1 N44       0.0219
     16 C16       -13.0575   48.0048   -0.0427 C.ar        1 N44      -0.0032
     17 C17       -10.3892   48.1214    0.8847 C.ar        1 N44       0.1200
     18 C18       -11.1916   47.0407    1.2146 C.ar        1 N44       0.1327
     19 C19       -12.2943   44.0911   -2.8811 C.2         1 N44      -0.1125
     20 C20       -13.2132   44.7840   -2.1996 C.2         1 N44      -0.0447
     21 C21       -16.6146   46.7216   -5.2902 C.2         1 N44       0.2021
     22 C22       -13.3209   45.8647    1.1932 C.2         1 N44       0.0515
     23 C23        -9.1764   46.6637    1.9030 C.3         1 N44       0.1864
     24 C24       -17.9591   48.5908   -6.1798 C.3         1 N44       0.0638
     25 C25       -15.9259   46.8237   -2.3557 C.3         1 N44       0.0086
     26 C26       -14.3925   47.9095   -0.7101 C.3         1 N44       0.0003
     27 C27       -13.4751   46.2027   -2.4271 C.3         1 N44      -0.0011
     28 N28       -17.7590   47.3733   -5.4537 N.am        1 N44      -0.2760
     29 N29       -14.6350   46.6979   -1.5815 N.4         1 N44       0.2715
     30 O30       -12.9735   44.6013    0.8412 O.co2       1 N44      -0.5668
     31 O31       -15.5562   47.1148   -5.7637 O.2         1 N44      -0.3884
     32 O32       -14.2322   46.0208    2.1825 O.co2       1 N44      -0.5668
     33 O33        -9.1525   48.0097    1.3918 O.3         1 N44      -0.2947
     34 O34       -10.5206   46.1560    1.9787 O.3         1 N44      -0.2890
     35 H1        -18.6925   47.7293  -11.4083 H           1 N44       0.0559
     36 H2        -17.0683   42.2670   -4.9029 H           1 N44       0.0572
     37 H3        -20.5658   48.3977  -10.0149 H           1 N44       0.0599
     38 H4        -16.4871   47.4609  -10.4244 H           1 N44       0.0599
     39 H5        -16.6513   42.2891   -2.5122 H           1 N44       0.0635
     40 H6        -17.0697   44.3178   -6.1529 H           1 N44       0.0651
     41 H7        -20.2511   48.7841   -7.6573 H           1 N44       0.0557
     42 H8        -16.1549   47.8597   -8.0693 H           1 N44       0.0557
     43 H9        -16.2296   44.3682   -1.3785 H           1 N44       0.0570
     44 H10       -12.5535   49.8636   -0.9529 H           1 N44       0.0445
     45 H11       -10.2906   49.9695   -0.1286 H           1 N44       0.0514
     46 H12       -12.1459   43.1283   -2.6824 H           1 N44       0.0292
     47 H13       -11.7102   44.5333   -3.5529 H           1 N44       0.0292
     48 H14       -13.7128   44.3049   -1.4774 H           1 N44       0.0725
     49 H15        -8.7300   46.6424    2.8987 H           1 N44       0.0973
     50 H16        -8.5857   46.0172    1.2459 H           1 N44       0.0973
     51 H17       -18.8367   49.0711   -5.7425 H           1 N44       0.0683
     52 H18       -17.1269   49.2846   -6.0357 H           1 N44       0.0683
     53 H19       -16.7379   47.0481   -1.6594 H           1 N44       0.0995
     54 H20       -15.8483   47.6907   -3.0204 H           1 N44       0.0995
     55 H21       -14.5925   48.8128   -1.2951 H           1 N44       0.0966
     56 H22       -15.1364   47.9076    0.0853 H           1 N44       0.0966
     57 H23       -13.6653   46.3565   -3.4950 H           1 N44       0.0998
     58 H24       -12.5486   46.7387   -2.2184 H           1 N44       0.0998
     59 H25       -18.5323   47.0166   -4.9855 H           1 N44       0.1869
     60 H26       -14.8120   45.9511   -0.9140 H           1 N44       0.2082
@<TRIPOS>BOND
     1     3     1  ar
     2     4     1  ar
     3     5     2  ar
     4     6     2  ar
     5     7     3  ar
     6     8     4  ar
     7     9     5  ar
     8    12     6  ar
     9    14     7  ar
    10    14     8  ar
    11    15     9  ar
    12    10    11  ar
    13    16    10  ar
    14    11    17  ar
    15    15    12  ar
    16    12    21   1
    17    16    13  ar
    18    13    18  ar
    19    13    22   1
    20    24    14   1
    21    25    15   1
    22    26    16   1
    23    18    17  ar
    24    17    33   1
    25    18    34   1
    26    20    19   2
    27    27    20   1
    28    21    28  am
    29    21    31   2
    30    22    30  ar
    31    22    32  ar
    32    23    33   1
    33    34    23   1
    34    28    24   1
    35    29    25   1
    36    29    26   1
    37    27    29   1
    38     1    35   1
    39     2    36   1
    40     3    37   1
    41     4    38   1
    42     5    39   1
    43     6    40   1
    44     7    41   1
    45     8    42   1
    46     9    43   1
    47    10    44   1
    48    11    45   1
    49    19    46   1
    50    19    47   1
    51    20    48   1
    52    23    49   1
    53    23    50   1
    54    24    51   1
    55    24    52   1
    56    25    53   1
    57    25    54   1
    58    26    55   1
    59    26    56   1
    60    27    57   1
    61    27    58   1
    62    28    59   1
    63    29    60   1
@<TRIPOS>SUBSTRUCTURE
     1  N44      1

