@<TRIPOS>MOLECULE
3zsx_ligand_040
    60    63
SMALL
GAST_HUCK
****
This file was generated by PARSER (from files_GN.cpp)

@<TRIPOS>ATOM
      1 C1        -11.5362   41.3049   -1.5135 C.ar        1 N44      -0.0687
      2 C2        -14.7887   48.1990    1.3430 C.ar        1 N44      -0.0630
      3 C3        -12.8887   41.5797   -1.2382 C.ar        1 N44      -0.0685
      4 C4        -10.8008   42.1761   -2.3384 C.ar        1 N44      -0.0685
      5 C5        -14.0018   49.3576    1.3842 C.ar        1 N44      -0.0640
      6 C6        -14.4028   47.1185    0.5413 C.ar        1 N44      -0.0483
      7 C7        -13.5063   42.7162   -1.7919 C.ar        1 N44      -0.0584
      8 C8        -11.4173   43.3131   -2.8912 C.ar        1 N44      -0.0584
      9 C9        -12.8459   49.4543    0.5843 C.ar        1 N44      -0.0493
     10 C10        -8.4652   50.9804   -2.5975 C.ar        1 N44      -0.0712
     11 C11        -8.4198   51.6664   -3.8259 C.ar        1 N44      -0.0449
     12 C12       -13.2376   47.2036   -0.2617 C.ar        1 N44       0.0564
     13 C13       -10.6103   52.0456   -2.0492 C.ar        1 N44       0.0376
     14 C14       -12.7785   43.5936   -2.6328 C.ar        1 N44      -0.0211
     15 C15       -12.4552   48.3962   -0.2694 C.ar        1 N44       0.0219
     16 C16        -9.5566   51.1345   -1.6963 C.ar        1 N44      -0.0032
     17 C17        -9.4864   52.5079   -4.1686 C.ar        1 N44       0.1200
     18 C18       -10.5506   52.7005   -3.3015 C.ar        1 N44       0.1327
     19 C19        -6.6178   47.1807   -0.4762 C.2         1 N44      -0.1125
     20 C20        -7.7344   47.8363   -0.1252 C.2         1 N44      -0.0447
     21 C21       -12.9218   46.0959   -1.0020 C.2         1 N44       0.2021
     22 C22       -11.7113   52.3232   -1.2112 C.2         1 N44       0.0515
     23 C23       -10.7634   54.0433   -4.9839 C.3         1 N44       0.1864
     24 C24       -13.3943   44.8507   -3.1238 C.3         1 N44       0.0638
     25 C25       -11.3053   48.6380   -1.2054 C.3         1 N44       0.0086
     26 C26        -9.5502   50.3169   -0.4306 C.3         1 N44       0.0003
     27 C27        -8.9027   47.9255   -0.9896 C.3         1 N44      -0.0011
     28 N28       -13.4799   45.9492   -2.2023 N.am        1 N44      -0.2760
     29 N29        -9.9710   48.8671   -0.5174 N.4         1 N44       0.2715
     30 O30       -12.9694   52.3679   -1.7110 O.co2       1 N44      -0.5668
     31 O31       -12.1604   45.2796   -0.4899 O.2         1 N44      -0.3884
     32 O32       -11.5029   52.9102   -0.0077 O.co2       1 N44      -0.5668
     33 O33        -9.6068   53.2415   -5.2901 O.3         1 N44      -0.2947
     34 O34       -11.4540   53.5568   -3.8222 O.3         1 N44      -0.2890
     35 H1        -11.0855   40.4832   -1.1116 H           1 N44       0.0559
     36 H2        -15.6491   48.1418    1.8937 H           1 N44       0.0572
     37 H3        -13.4188   40.9548   -0.6194 H           1 N44       0.0599
     38 H4         -9.8067   41.9890   -2.5199 H           1 N44       0.0599
     39 H5        -14.2644   50.1338    1.9956 H           1 N44       0.0635
     40 H6        -14.9873   46.2792    0.5440 H           1 N44       0.0651
     41 H7        -14.4852   42.9130   -1.5610 H           1 N44       0.0557
     42 H8        -10.8568   43.9566   -3.4532 H           1 N44       0.0557
     43 H9        -12.3085   50.3238    0.6074 H           1 N44       0.0570
     44 H10        -7.6817   50.3604   -2.3607 H           1 N44       0.0445
     45 H11        -7.6293   51.5440   -4.4630 H           1 N44       0.0514
     46 H12        -5.8446   47.1412    0.1449 H           1 N44       0.0292
     47 H13        -6.5387   46.7390   -1.3585 H           1 N44       0.0292
     48 H14        -7.7633   48.2587    0.7783 H           1 N44       0.0725
     49 H15       -11.4481   54.0390   -5.8317 H           1 N44       0.0973
     50 H16       -10.4517   55.0749   -4.8042 H           1 N44       0.0973
     51 H17       -14.4092   44.6252   -3.4596 H           1 N44       0.0683
     52 H18       -12.8581   45.2180   -3.9973 H           1 N44       0.0683
     53 H19       -11.6016   49.4853   -1.8235 H           1 N44       0.0995
     54 H20       -11.2389   47.8134   -1.9215 H           1 N44       0.0995
     55 H21       -10.1966   50.7667    0.3241 H           1 N44       0.0966
     56 H22        -8.5493   50.3955   -0.0073 H           1 N44       0.0966
     57 H23        -9.3126   46.9138   -1.0363 H           1 N44       0.0998
     58 H24        -8.5938   48.2078   -1.9963 H           1 N44       0.0998
     59 H25       -13.9893   46.7199   -2.5272 H           1 N44       0.1869
     60 H26       -10.1304   48.5934    0.4548 H           1 N44       0.2082
@<TRIPOS>BOND
     1     3     1  ar
     2     4     1  ar
     3     5     2  ar
     4     6     2  ar
     5     7     3  ar
     6     8     4  ar
     7     9     5  ar
     8    12     6  ar
     9    14     7  ar
    10    14     8  ar
    11    15     9  ar
    12    10    11  ar
    13    16    10  ar
    14    11    17  ar
    15    15    12  ar
    16    12    21   1
    17    16    13  ar
    18    13    18  ar
    19    13    22   1
    20    24    14   1
    21    25    15   1
    22    26    16   1
    23    18    17  ar
    24    17    33   1
    25    18    34   1
    26    20    19   2
    27    27    20   1
    28    21    28  am
    29    21    31   2
    30    22    30  ar
    31    22    32  ar
    32    23    33   1
    33    34    23   1
    34    28    24   1
    35    29    25   1
    36    29    26   1
    37    27    29   1
    38     1    35   1
    39     2    36   1
    40     3    37   1
    41     4    38   1
    42     5    39   1
    43     6    40   1
    44     7    41   1
    45     8    42   1
    46     9    43   1
    47    10    44   1
    48    11    45   1
    49    19    46   1
    50    19    47   1
    51    20    48   1
    52    23    49   1
    53    23    50   1
    54    24    51   1
    55    24    52   1
    56    25    53   1
    57    25    54   1
    58    26    55   1
    59    26    56   1
    60    27    57   1
    61    27    58   1
    62    28    59   1
    63    29    60   1
@<TRIPOS>SUBSTRUCTURE
     1  N44      1

