@<TRIPOS>MOLECULE
3zsx_ligand_086
    60    63
SMALL
GAST_HUCK
****
This file was generated by PARSER (from files_GN.cpp)

@<TRIPOS>ATOM
      1 C1        -10.2547   42.6931   -1.4957 C.ar        1 N44      -0.0687
      2 C2        -14.4497   48.9918    0.7007 C.ar        1 N44      -0.0630
      3 C3        -11.4893   42.0820   -1.2131 C.ar        1 N44      -0.0685
      4 C4        -10.2137   43.8650   -2.2716 C.ar        1 N44      -0.0685
      5 C5        -15.0854   49.9479   -0.1008 C.ar        1 N44      -0.0640
      6 C6        -14.3851   47.6569    0.2756 C.ar        1 N44      -0.0483
      7 C7        -12.6813   42.6355   -1.7171 C.ar        1 N44      -0.0584
      8 C8        -11.4052   44.4184   -2.7769 C.ar        1 N44      -0.0584
      9 C9        -15.6820   49.5596   -1.3102 C.ar        1 N44      -0.0493
     10 C10       -20.1915   45.6300   -4.9861 C.ar        1 N44      -0.0712
     11 C11       -21.5459   45.2916   -5.1315 C.ar        1 N44      -0.0449
     12 C12       -14.9458   47.2456   -0.9627 C.ar        1 N44       0.0564
     13 C13       -20.3616   45.4363   -2.5426 C.ar        1 N44       0.0376
     14 C14       -12.6534   43.8054   -2.5134 C.ar        1 N44      -0.0211
     15 C15       -15.6496   48.2125   -1.7566 C.ar        1 N44       0.0219
     16 C16       -19.5806   45.7399   -3.7049 C.ar        1 N44      -0.0032
     17 C17       -22.3114   45.0772   -3.9813 C.ar        1 N44       0.1200
     18 C18       -21.7386   45.1506   -2.7210 C.ar        1 N44       0.1327
     19 C19       -20.5507   49.0277   -4.3279 C.2         1 N44      -0.1125
     20 C20       -19.2793   49.0547   -3.9006 C.2         1 N44      -0.0447
     21 C21       -14.7126   45.9249   -1.3516 C.2         1 N44       0.2021
     22 C22       -19.8427   45.4246   -1.2204 C.2         1 N44       0.0515
     23 C23       -23.8761   44.7817   -2.5270 C.3         1 N44       0.1864
     24 C24       -13.8988   44.3788   -3.0861 C.3         1 N44       0.0638
     25 C25       -16.3987   47.8931   -3.0180 C.3         1 N44       0.0086
     26 C26       -18.1528   46.2069   -3.6552 C.3         1 N44       0.0003
     27 C27       -18.8261   48.4649   -2.6477 C.3         1 N44      -0.0011
     28 N28       -14.2023   45.6693   -2.5495 N.am        1 N44      -0.2760
     29 N29       -17.7942   47.3713   -2.7624 N.4         1 N44       0.2715
     30 O30       -20.6023   45.7813   -0.1579 O.co2       1 N44      -0.5668
     31 O31       -14.8006   45.0194   -0.5274 O.2         1 N44      -0.3884
     32 O32       -18.5887   44.9984   -0.9501 O.co2       1 N44      -0.5668
     33 O33       -23.6184   44.7594   -3.9398 O.3         1 N44      -0.2947
     34 O34       -22.6575   44.8724   -1.7704 O.3         1 N44      -0.2890
     35 H1         -9.3876   42.2852   -1.1382 H           1 N44       0.0559
     36 H2        -14.0204   49.2705    1.5857 H           1 N44       0.0572
     37 H3        -11.5202   41.2332   -0.6433 H           1 N44       0.0599
     38 H4         -9.3157   44.3083   -2.4773 H           1 N44       0.0599
     39 H5        -15.1256   50.9251    0.2010 H           1 N44       0.0635
     40 H6        -13.8855   46.9932    0.8745 H           1 N44       0.0651
     41 H7        -13.5694   42.1780   -1.4985 H           1 N44       0.0557
     42 H8        -11.3556   45.2654   -3.3498 H           1 N44       0.0557
     43 H9        -16.1585   50.2804   -1.8591 H           1 N44       0.0570
     44 H10       -19.6542   45.8027   -5.8379 H           1 N44       0.0445
     45 H11       -21.9697   45.2165   -6.0581 H           1 N44       0.0514
     46 H12       -20.7999   49.4745   -5.1770 H           1 N44       0.0292
     47 H13       -21.2581   48.5602   -3.8130 H           1 N44       0.0292
     48 H14       -18.6132   49.5308   -4.4611 H           1 N44       0.0725
     49 H15       -24.4050   43.8715   -2.2424 H           1 N44       0.0973
     50 H16       -24.5123   45.6386   -2.2922 H           1 N44       0.0973
     51 H17       -14.7566   43.7159   -2.9424 H           1 N44       0.0683
     52 H18       -13.7652   44.4884   -4.1625 H           1 N44       0.0683
     53 H19       -15.8194   47.1882   -3.6062 H           1 N44       0.0995
     54 H20       -16.4370   48.7742   -3.6652 H           1 N44       0.0995
     55 H21       -17.8143   46.4546   -4.6669 H           1 N44       0.0966
     56 H22       -17.5519   45.3500   -3.3402 H           1 N44       0.0966
     57 H23       -19.6719   48.0751   -2.0786 H           1 N44       0.0998
     58 H24       -18.4342   49.2780   -2.0334 H           1 N44       0.0998
     59 H25       -14.0472   46.4332   -3.1320 H           1 N44       0.1869
     60 H26       -17.7495   46.9618   -1.8281 H           1 N44       0.2082
@<TRIPOS>BOND
     1     3     1  ar
     2     4     1  ar
     3     5     2  ar
     4     6     2  ar
     5     7     3  ar
     6     8     4  ar
     7     9     5  ar
     8    12     6  ar
     9    14     7  ar
    10    14     8  ar
    11    15     9  ar
    12    10    11  ar
    13    16    10  ar
    14    11    17  ar
    15    15    12  ar
    16    12    21   1
    17    16    13  ar
    18    13    18  ar
    19    13    22   1
    20    24    14   1
    21    25    15   1
    22    26    16   1
    23    18    17  ar
    24    17    33   1
    25    18    34   1
    26    20    19   2
    27    27    20   1
    28    21    28  am
    29    21    31   2
    30    22    30  ar
    31    22    32  ar
    32    23    33   1
    33    34    23   1
    34    28    24   1
    35    29    25   1
    36    29    26   1
    37    27    29   1
    38     1    35   1
    39     2    36   1
    40     3    37   1
    41     4    38   1
    42     5    39   1
    43     6    40   1
    44     7    41   1
    45     8    42   1
    46     9    43   1
    47    10    44   1
    48    11    45   1
    49    19    46   1
    50    19    47   1
    51    20    48   1
    52    23    49   1
    53    23    50   1
    54    24    51   1
    55    24    52   1
    56    25    53   1
    57    25    54   1
    58    26    55   1
    59    26    56   1
    60    27    57   1
    61    27    58   1
    62    28    59   1
    63    29    60   1
@<TRIPOS>SUBSTRUCTURE
     1  N44      1

