@<TRIPOS>MOLECULE
3zsx_ligand_019
    60    63
SMALL
GAST_HUCK
****
This file was generated by PARSER (from files_GN.cpp)

@<TRIPOS>ATOM
      1 C1        -11.7834   48.3471    5.4281 C.ar        1 N44      -0.0687
      2 C2        -11.7111   43.0001   -0.9490 C.ar        1 N44      -0.0630
      3 C3        -12.6037   49.2322    4.7048 C.ar        1 N44      -0.0685
      4 C4        -10.9599   47.4371    4.7419 C.ar        1 N44      -0.0685
      5 C5        -12.9462   42.5513   -1.4310 C.ar        1 N44      -0.0640
      6 C6        -11.5085   44.3685   -0.7126 C.ar        1 N44      -0.0483
      7 C7        -12.6069   49.1987    3.2981 C.ar        1 N44      -0.0584
      8 C8        -10.9525   47.4176    3.3348 C.ar        1 N44      -0.0584
      9 C9        -13.9675   43.4763   -1.7102 C.ar        1 N44      -0.0493
     10 C10       -18.1675   45.4623   -1.9996 C.ar        1 N44      -0.0712
     11 C11       -19.2991   45.3127   -1.1625 C.ar        1 N44      -0.0449
     12 C12       -12.5365   45.3134   -0.9747 C.ar        1 N44       0.0564
     13 C13       -18.8363   47.7614   -2.5166 C.ar        1 N44       0.0376
     14 C14       -11.7814   48.2924    2.5901 C.ar        1 N44      -0.0211
     15 C15       -13.7822   44.8684   -1.5211 C.ar        1 N44       0.0219
     16 C16       -17.8733   46.7039   -2.6327 C.ar        1 N44      -0.0032
     17 C17       -20.1606   46.4030   -0.9814 C.ar        1 N44       0.1200
     18 C18       -19.9468   47.5906   -1.6578 C.ar        1 N44       0.1327
     19 C19       -17.0694   44.1842   -5.4007 C.2         1 N44      -0.1125
     20 C20       -16.1013   44.1079   -4.4775 C.2         1 N44      -0.0447
     21 C21       -12.2785   46.6337   -0.6629 C.2         1 N44       0.2021
     22 C22       -18.7195   48.9719   -3.2221 C.2         1 N44       0.0515
     23 C23       -21.7117   47.7906   -0.4126 C.3         1 N44       0.1864
     24 C24       -11.7691   48.2618    1.1066 C.3         1 N44       0.0638
     25 C25       -14.9666   45.7611   -1.7463 C.3         1 N44       0.0086
     26 C26       -16.5578   46.9596   -3.3174 C.3         1 N44       0.0003
     27 C27       -15.0869   45.1310   -4.2793 C.3         1 N44      -0.0011
     28 N28       -12.1165   46.9635    0.6109 N.am        1 N44      -0.2760
     29 N29       -15.2986   46.1245   -3.1707 N.4         1 N44       0.2715
     30 O30       -18.9177   50.1667   -2.6119 O.co2       1 N44      -0.5668
     31 O31       -12.2037   47.4540   -1.5712 O.2         1 N44      -0.3884
     32 O32       -18.7786   48.9527   -4.5811 O.co2       1 N44      -0.5668
     33 O33       -21.2537   46.4397   -0.2008 O.3         1 N44      -0.2947
     34 O34       -20.9130   48.4820   -1.3812 O.3         1 N44      -0.2890
     35 H1        -11.7836   48.3665    6.4529 H           1 N44       0.0559
     36 H2        -10.9664   42.3324   -0.7563 H           1 N44       0.0572
     37 H3        -13.2036   49.8945    5.2063 H           1 N44       0.0599
     38 H4        -10.3662   46.7906    5.2669 H           1 N44       0.0599
     39 H5        -13.1104   41.5504   -1.5696 H           1 N44       0.0635
     40 H6        -10.6051   44.6683   -0.3471 H           1 N44       0.0651
     41 H7        -13.2174   49.8494    2.7959 H           1 N44       0.0557
     42 H8        -10.3424   46.7519    2.8546 H           1 N44       0.0557
     43 H9        -14.8663   43.1131   -2.0415 H           1 N44       0.0570
     44 H10       -17.5706   44.6602   -2.1095 H           1 N44       0.0445
     45 H11       -19.4807   44.4307   -0.6796 H           1 N44       0.0514
     46 H12       -17.6951   43.4244   -5.5323 H           1 N44       0.0292
     47 H13       -17.1755   44.9910   -5.9627 H           1 N44       0.0292
     48 H14       -16.0463   43.2688   -3.9291 H           1 N44       0.0725
     49 H15       -21.6763   48.3324    0.5352 H           1 N44       0.0973
     50 H16       -22.7467   47.7621   -0.7559 H           1 N44       0.0973
     51 H17       -10.7664   48.5156    0.7587 H           1 N44       0.0683
     52 H18       -12.4655   48.9949    0.6925 H           1 N44       0.0683
     53 H19       -14.8022   46.7097   -1.2219 H           1 N44       0.0995
     54 H20       -15.8196   45.3097   -1.2372 H           1 N44       0.0995
     55 H21       -16.2375   47.9534   -2.9758 H           1 N44       0.0966
     56 H22       -16.7779   47.0794   -4.3851 H           1 N44       0.0966
     57 H23       -14.9508   45.6965   -5.2063 H           1 N44       0.0998
     58 H24       -14.1336   44.6199   -4.1285 H           1 N44       0.0998
     59 H25       -12.2231   46.2528    1.2674 H           1 N44       0.1869
     60 H26       -14.5772   46.8089   -3.3847 H           1 N44       0.2082
@<TRIPOS>BOND
     1     3     1  ar
     2     4     1  ar
     3     5     2  ar
     4     6     2  ar
     5     7     3  ar
     6     8     4  ar
     7     9     5  ar
     8    12     6  ar
     9    14     7  ar
    10    14     8  ar
    11    15     9  ar
    12    10    11  ar
    13    16    10  ar
    14    11    17  ar
    15    15    12  ar
    16    12    21   1
    17    16    13  ar
    18    13    18  ar
    19    13    22   1
    20    24    14   1
    21    25    15   1
    22    26    16   1
    23    18    17  ar
    24    17    33   1
    25    18    34   1
    26    20    19   2
    27    27    20   1
    28    21    28  am
    29    21    31   2
    30    22    30  ar
    31    22    32  ar
    32    23    33   1
    33    34    23   1
    34    28    24   1
    35    29    25   1
    36    29    26   1
    37    27    29   1
    38     1    35   1
    39     2    36   1
    40     3    37   1
    41     4    38   1
    42     5    39   1
    43     6    40   1
    44     7    41   1
    45     8    42   1
    46     9    43   1
    47    10    44   1
    48    11    45   1
    49    19    46   1
    50    19    47   1
    51    20    48   1
    52    23    49   1
    53    23    50   1
    54    24    51   1
    55    24    52   1
    56    25    53   1
    57    25    54   1
    58    26    55   1
    59    26    56   1
    60    27    57   1
    61    27    58   1
    62    28    59   1
    63    29    60   1
@<TRIPOS>SUBSTRUCTURE
     1  N44      1

