@<TRIPOS>MOLECULE
3zsx_ligand_035
    60    63
SMALL
GAST_HUCK
****
This file was generated by PARSER (from files_GN.cpp)

@<TRIPOS>ATOM
      1 C1         -3.4150   50.1204   -1.3801 C.ar        1 N44      -0.0687
      2 C2         -5.4494   45.0228    4.2656 C.ar        1 N44      -0.0630
      3 C3         -3.0631   48.9013   -0.7734 C.ar        1 N44      -0.0685
      4 C4         -4.7001   50.2941   -1.9212 C.ar        1 N44      -0.0685
      5 C5         -6.5212   45.1691    5.1591 C.ar        1 N44      -0.0640
      6 C6         -5.4897   45.6621    3.0177 C.ar        1 N44      -0.0483
      7 C7         -3.9989   47.8541   -0.7054 C.ar        1 N44      -0.0584
      8 C8         -5.6412   49.2512   -1.8416 C.ar        1 N44      -0.0584
      9 C9         -7.6370   45.9416    4.7976 C.ar        1 N44      -0.0493
     10 C10       -10.0799   44.0610   -0.0217 C.ar        1 N44      -0.0712
     11 C11       -10.6617   43.4390   -1.1397 C.ar        1 N44      -0.0449
     12 C12        -6.6061   46.4524    2.6439 C.ar        1 N44       0.0564
     13 C13       -12.2682   44.9220    0.6939 C.ar        1 N44       0.0376
     14 C14        -5.3041   48.0251   -1.2195 C.ar        1 N44      -0.0211
     15 C15        -7.7175   46.5864    3.5336 C.ar        1 N44       0.0219
     16 C16       -10.8569   44.8094    0.9085 C.ar        1 N44      -0.0032
     17 C17       -12.0385   43.5707   -1.3395 C.ar        1 N44       0.1200
     18 C18       -12.8186   44.2965   -0.4531 C.ar        1 N44       0.1327
     19 C19       -10.9436   47.6368   -1.2819 C.2         1 N44      -0.1125
     20 C20       -10.7084   47.9261    0.0049 C.2         1 N44      -0.0447
     21 C21        -6.5194   47.1240    1.4451 C.2         1 N44       0.2021
     22 C22       -13.1491   45.6033    1.5742 C.2         1 N44       0.0515
     23 C23       -14.0028   43.7297   -2.1867 C.3         1 N44       0.1864
     24 C24        -6.3166   46.9555   -1.0302 C.3         1 N44       0.0638
     25 C25        -8.9809   47.3476    3.2088 C.3         1 N44       0.0086
     26 C26       -10.1370   45.4023    2.0868 C.3         1 N44       0.0003
     27 C27        -9.5335   47.4738    0.7235 C.3         1 N44      -0.0011
     28 N28        -6.3939   46.4421    0.3080 N.am        1 N44      -0.2760
     29 N29        -9.8633   46.8891    2.0706 N.4         1 N44       0.2715
     30 O30       -12.7941   46.7335    2.2193 O.co2       1 N44      -0.5668
     31 O31        -6.4884   48.3461    1.4804 O.2         1 N44      -0.3884
     32 O32       -14.4356   45.2232    1.7328 O.co2       1 N44      -0.5668
     33 O33       -12.7496   43.0476   -2.3551 O.3         1 N44      -0.2947
     34 O34       -14.1082   44.2928   -0.8659 O.3         1 N44      -0.2890
     35 H1         -2.7314   50.8786   -1.4301 H           1 N44       0.0559
     36 H2         -4.6368   44.4569    4.5265 H           1 N44       0.0572
     37 H3         -2.1368   48.7794   -0.3564 H           1 N44       0.0599
     38 H4         -4.9561   51.1811   -2.3604 H           1 N44       0.0599
     39 H5         -6.4921   44.7073    6.0715 H           1 N44       0.0635
     40 H6         -4.6803   45.5614    2.3958 H           1 N44       0.0651
     41 H7         -3.7418   46.9926   -0.2192 H           1 N44       0.0557
     42 H8         -6.5829   49.4093   -2.2109 H           1 N44       0.0557
     43 H9         -8.4020   46.0189    5.4724 H           1 N44       0.0570
     44 H10        -9.0704   43.9572    0.1033 H           1 N44       0.0445
     45 H11       -10.0922   42.9014   -1.7980 H           1 N44       0.0514
     46 H12       -11.7421   48.0052   -1.7379 H           1 N44       0.0292
     47 H13       -10.3159   47.0704   -1.8104 H           1 N44       0.0292
     48 H14       -11.3294   48.5583    0.4642 H           1 N44       0.0725
     49 H15       -14.8213   43.0293   -2.3534 H           1 N44       0.0973
     50 H16       -14.0759   44.5303   -2.9304 H           1 N44       0.0973
     51 H17        -6.0713   46.1174   -1.6983 H           1 N44       0.0683
     52 H18        -7.3015   47.3172   -1.3266 H           1 N44       0.0683
     53 H19        -8.7113   48.3999    3.0888 H           1 N44       0.0995
     54 H20        -9.6451   47.3416    4.0799 H           1 N44       0.0995
     55 H21        -9.1897   44.8702    2.2157 H           1 N44       0.0966
     56 H22       -10.7170   45.1700    2.9861 H           1 N44       0.0966
     57 H23        -8.9128   48.3636    0.8105 H           1 N44       0.0998
     58 H24        -8.9803   46.7323    0.1409 H           1 N44       0.0998
     59 H25        -6.3970   45.4742    0.3858 H           1 N44       0.1869
     60 H26       -10.7623   47.3177    2.3054 H           1 N44       0.2082
@<TRIPOS>BOND
     1     3     1  ar
     2     4     1  ar
     3     5     2  ar
     4     6     2  ar
     5     7     3  ar
     6     8     4  ar
     7     9     5  ar
     8    12     6  ar
     9    14     7  ar
    10    14     8  ar
    11    15     9  ar
    12    10    11  ar
    13    16    10  ar
    14    11    17  ar
    15    15    12  ar
    16    12    21   1
    17    16    13  ar
    18    13    18  ar
    19    13    22   1
    20    24    14   1
    21    25    15   1
    22    26    16   1
    23    18    17  ar
    24    17    33   1
    25    18    34   1
    26    20    19   2
    27    27    20   1
    28    21    28  am
    29    21    31   2
    30    22    30  ar
    31    22    32  ar
    32    23    33   1
    33    34    23   1
    34    28    24   1
    35    29    25   1
    36    29    26   1
    37    27    29   1
    38     1    35   1
    39     2    36   1
    40     3    37   1
    41     4    38   1
    42     5    39   1
    43     6    40   1
    44     7    41   1
    45     8    42   1
    46     9    43   1
    47    10    44   1
    48    11    45   1
    49    19    46   1
    50    19    47   1
    51    20    48   1
    52    23    49   1
    53    23    50   1
    54    24    51   1
    55    24    52   1
    56    25    53   1
    57    25    54   1
    58    26    55   1
    59    26    56   1
    60    27    57   1
    61    27    58   1
    62    28    59   1
    63    29    60   1
@<TRIPOS>SUBSTRUCTURE
     1  N44      1

