@<TRIPOS>MOLECULE
3zsx_ligand_076
    60    63
SMALL
GAST_HUCK
****
This file was generated by PARSER (from files_GN.cpp)

@<TRIPOS>ATOM
      1 C1        -12.1169   57.8750   -2.0693 C.ar        1 N44      -0.0687
      2 C2         -8.7888   52.4097    1.7389 C.ar        1 N44      -0.0630
      3 C3        -11.5884   56.8544   -2.8786 C.ar        1 N44      -0.0685
      4 C4        -13.0369   57.5598   -1.0523 C.ar        1 N44      -0.0685
      5 C5         -8.9168   51.2017    2.4397 C.ar        1 N44      -0.0640
      6 C6         -9.9063   52.9746    1.1086 C.ar        1 N44      -0.0483
      7 C7        -11.9844   55.5196   -2.6757 C.ar        1 N44      -0.0584
      8 C8        -13.4398   56.2268   -0.8550 C.ar        1 N44      -0.0584
      9 C9        -10.1639   50.5566    2.4974 C.ar        1 N44      -0.0493
     10 C10       -11.4476   47.1919   -1.8481 C.ar        1 N44      -0.0712
     11 C11       -11.5970   45.9960   -2.5675 C.ar        1 N44      -0.0449
     12 C12       -11.1766   52.3443    1.1717 C.ar        1 N44       0.0564
     13 C13       -12.8910   46.3390   -0.0357 C.ar        1 N44       0.0376
     14 C14       -12.9274   55.1911   -1.6728 C.ar        1 N44      -0.0211
     15 C15       -11.3091   51.0978    1.8569 C.ar        1 N44       0.0219
     16 C16       -12.0691   47.3862   -0.5812 C.ar        1 N44      -0.0032
     17 C17       -12.4057   44.9885   -2.0335 C.ar        1 N44       0.1200
     18 C18       -13.0399   45.1583   -0.8109 C.ar        1 N44       0.1327
     19 C19       -15.7861   50.0629   -1.6712 C.2         1 N44      -0.1125
     20 C20       -14.8537   49.5065   -0.8759 C.2         1 N44      -0.0447
     21 C21       -12.2430   53.0094    0.5907 C.2         1 N44       0.2021
     22 C22       -13.5339   46.4016    1.2405 C.2         1 N44       0.0515
     23 C23       -13.5996   43.2292   -1.6770 C.3         1 N44       0.1864
     24 C24       -13.3399   53.7793   -1.4673 C.3         1 N44       0.0638
     25 C25       -12.5781   50.2850    1.8800 C.3         1 N44       0.0086
     26 C26       -11.7495   48.6602    0.1475 C.3         1 N44       0.0003
     27 C27       -13.6645   50.2142   -0.4310 C.3         1 N44      -0.0011
     28 N28       -12.3362   53.0795   -0.7333 N.am        1 N44      -0.2760
     29 N29       -12.9172   49.4756    0.6511 N.4         1 N44       0.2715
     30 O30       -14.4442   45.4808    1.6374 O.co2       1 N44      -0.5668
     31 O31       -13.0466   53.5763    1.3236 O.2         1 N44      -0.3884
     32 O32       -13.2629   47.3689    2.1433 O.co2       1 N44      -0.5668
     33 O33       -12.6011   43.7633   -2.5622 O.3         1 N44      -0.2947
     34 O34       -13.7161   44.0363   -0.4909 O.3         1 N44      -0.2890
     35 H1        -11.8292   58.8473   -2.2172 H           1 N44       0.0559
     36 H2         -7.8851   52.8765    1.6899 H           1 N44       0.0572
     37 H3        -10.9170   57.0823   -3.6157 H           1 N44       0.0599
     38 H4        -13.4127   58.3019   -0.4574 H           1 N44       0.0599
     39 H5         -8.1046   50.7934    2.9035 H           1 N44       0.0635
     40 H6         -9.7901   53.8684    0.6223 H           1 N44       0.0651
     41 H7        -11.5861   54.7888   -3.2711 H           1 N44       0.0557
     42 H8        -14.1041   56.0157   -0.1078 H           1 N44       0.0557
     43 H9        -10.2179   49.6657    2.9928 H           1 N44       0.0570
     44 H10       -10.8405   47.9130   -2.2477 H           1 N44       0.0445
     45 H11       -11.1114   45.8546   -3.4559 H           1 N44       0.0514
     46 H12       -16.5957   49.5491   -1.9168 H           1 N44       0.0292
     47 H13       -15.6659   50.9739   -2.0342 H           1 N44       0.0292
     48 H14       -15.0318   48.5865   -0.5399 H           1 N44       0.0725
     49 H15       -13.3374   42.2036   -1.4044 H           1 N44       0.0973
     50 H16       -14.5647   43.1997   -2.1922 H           1 N44       0.0973
     51 H17       -13.4571   53.2893   -2.4365 H           1 N44       0.0683
     52 H18       -14.3153   53.7135   -0.9722 H           1 N44       0.0683
     53 H19       -13.4151   50.9302    2.1597 H           1 N44       0.0995
     54 H20       -12.5304   49.5562    2.6967 H           1 N44       0.0995
     55 H21       -11.1236   49.3239   -0.4621 H           1 N44       0.0966
     56 H22       -11.1161   48.3584    0.9856 H           1 N44       0.0966
     57 H23       -14.0159   51.1797   -0.0587 H           1 N44       0.0998
     58 H24       -13.0152   50.3992   -1.2913 H           1 N44       0.0998
     59 H25       -11.6653   52.6081   -1.2493 H           1 N44       0.1869
     60 H26       -13.5960   48.7942    1.0015 H           1 N44       0.2082
@<TRIPOS>BOND
     1     3     1  ar
     2     4     1  ar
     3     5     2  ar
     4     6     2  ar
     5     7     3  ar
     6     8     4  ar
     7     9     5  ar
     8    12     6  ar
     9    14     7  ar
    10    14     8  ar
    11    15     9  ar
    12    10    11  ar
    13    16    10  ar
    14    11    17  ar
    15    15    12  ar
    16    12    21   1
    17    16    13  ar
    18    13    18  ar
    19    13    22   1
    20    24    14   1
    21    25    15   1
    22    26    16   1
    23    18    17  ar
    24    17    33   1
    25    18    34   1
    26    20    19   2
    27    27    20   1
    28    21    28  am
    29    21    31   2
    30    22    30  ar
    31    22    32  ar
    32    23    33   1
    33    34    23   1
    34    28    24   1
    35    29    25   1
    36    29    26   1
    37    27    29   1
    38     1    35   1
    39     2    36   1
    40     3    37   1
    41     4    38   1
    42     5    39   1
    43     6    40   1
    44     7    41   1
    45     8    42   1
    46     9    43   1
    47    10    44   1
    48    11    45   1
    49    19    46   1
    50    19    47   1
    51    20    48   1
    52    23    49   1
    53    23    50   1
    54    24    51   1
    55    24    52   1
    56    25    53   1
    57    25    54   1
    58    26    55   1
    59    26    56   1
    60    27    57   1
    61    27    58   1
    62    28    59   1
    63    29    60   1
@<TRIPOS>SUBSTRUCTURE
     1  N44      1

