@<TRIPOS>MOLECULE
3zsx_ligand_075
    60    63
SMALL
GAST_HUCK
****
This file was generated by PARSER (from files_GN.cpp)

@<TRIPOS>ATOM
      1 C1        -14.4342   53.8570   -2.9782 C.ar        1 N44      -0.0687
      2 C2        -16.3652   46.4772   -6.1941 C.ar        1 N44      -0.0630
      3 C3        -14.2717   53.3274   -1.6847 C.ar        1 N44      -0.0685
      4 C4        -15.2645   53.2037   -3.9045 C.ar        1 N44      -0.0685
      5 C5        -15.6385   45.3088   -5.9170 C.ar        1 N44      -0.0640
      6 C6        -16.6898   47.3584   -5.1543 C.ar        1 N44      -0.0483
      7 C7        -14.9364   52.1408   -1.3200 C.ar        1 N44      -0.0584
      8 C8        -15.9363   52.0249   -3.5374 C.ar        1 N44      -0.0584
      9 C9        -15.2203   45.0363   -4.6042 C.ar        1 N44      -0.0493
     10 C10       -12.3764   43.0556   -2.3588 C.ar        1 N44      -0.0712
     11 C11       -11.9811   41.8796   -1.6975 C.ar        1 N44      -0.0449
     12 C12       -16.2777   47.0904   -3.8278 C.ar        1 N44       0.0564
     13 C13       -10.8255   44.3825   -1.0130 C.ar        1 N44       0.0376
     14 C14       -15.7759   51.4709   -2.2424 C.ar        1 N44      -0.0211
     15 C15       -15.5095   45.9242   -3.5390 C.ar        1 N44       0.0219
     16 C16       -11.8438   44.3262   -2.0157 C.ar        1 N44      -0.0032
     17 C17       -11.0132   41.9718   -0.6906 C.ar        1 N44       0.1200
     18 C18       -10.4497   43.1878   -0.3537 C.ar        1 N44       0.1327
     19 C19       -14.0263   45.9368    1.6504 C.2         1 N44      -0.1125
     20 C20       -13.4268   45.7346    0.4757 C.2         1 N44      -0.0447
     21 C21       -16.6912   47.9738   -2.8471 C.2         1 N44       0.2021
     22 C22       -10.2130   45.5796   -0.5988 C.2         1 N44       0.0515
     23 C23        -9.7825   41.6781    1.0408 C.3         1 N44       0.1864
     24 C24       -16.4917   50.2204   -1.8854 C.3         1 N44       0.0638
     25 C25       -14.9517   45.6285   -2.1782 C.3         1 N44       0.0086
     26 C26       -12.4257   45.5484   -2.6651 C.3         1 N44       0.0003
     27 C27       -13.3226   46.7257   -0.5910 C.3         1 N44      -0.0011
     28 N28       -16.1307   49.1661   -2.7816 N.am        1 N44      -0.2760
     29 N29       -13.5886   46.2373   -1.9891 N.4         1 N44       0.2715
     30 O30       -10.3207   45.9882    0.6861 O.co2       1 N44      -0.5668
     31 O31       -17.6373   47.6464   -2.1480 O.2         1 N44      -0.3884
     32 O32        -9.1597   46.0408   -1.3051 O.co2       1 N44      -0.5668
     33 O33       -10.5202   40.9607    0.0404 O.3         1 N44      -0.2947
     34 O34        -9.5418   43.0376    0.6350 O.3         1 N44      -0.2890
     35 H1        -13.9502   54.7182   -3.2435 H           1 N44       0.0559
     36 H2        -16.6738   46.6727   -7.1480 H           1 N44       0.0572
     37 H3        -13.6710   53.8057   -1.0109 H           1 N44       0.0599
     38 H4        -15.3814   53.5856   -4.8460 H           1 N44       0.0599
     39 H5        -15.4179   44.6535   -6.6652 H           1 N44       0.0635
     40 H6        -17.2491   48.1892   -5.3737 H           1 N44       0.0651
     41 H7        -14.8054   51.7723   -0.3746 H           1 N44       0.0557
     42 H8        -16.5376   51.5630   -4.2241 H           1 N44       0.0557
     43 H9        -14.6987   44.1761   -4.4409 H           1 N44       0.0570
     44 H10       -13.0735   42.9654   -3.0938 H           1 N44       0.0445
     45 H11       -12.4022   40.9777   -1.9271 H           1 N44       0.0514
     46 H12       -14.0199   45.2231    2.3403 H           1 N44       0.0292
     47 H13       -14.4550   46.8032    1.8686 H           1 N44       0.0292
     48 H14       -12.9871   44.8602    0.3431 H           1 N44       0.0725
     49 H15        -8.8296   41.1758    1.2172 H           1 N44       0.0973
     50 H16       -10.3578   41.6745    1.9713 H           1 N44       0.0973
     51 H17       -17.5656   50.4065   -1.9539 H           1 N44       0.0683
     52 H18       -16.2591   49.9054   -0.8659 H           1 N44       0.0683
     53 H19       -14.9306   44.5553   -1.9921 H           1 N44       0.0995
     54 H20       -15.6515   46.0185   -1.4348 H           1 N44       0.0995
     55 H21       -12.6963   45.2991   -3.6923 H           1 N44       0.0966
     56 H22       -11.6394   46.2944   -2.7906 H           1 N44       0.0966
     57 H23       -12.3261   47.1664   -0.5414 H           1 N44       0.0998
     58 H24       -14.0101   47.5560   -0.4048 H           1 N44       0.0998
     59 H25       -15.4107   49.3490   -3.4021 H           1 N44       0.1869
     60 H26       -13.6566   47.1064   -2.5183 H           1 N44       0.2082
@<TRIPOS>BOND
     1     3     1  ar
     2     4     1  ar
     3     5     2  ar
     4     6     2  ar
     5     7     3  ar
     6     8     4  ar
     7     9     5  ar
     8    12     6  ar
     9    14     7  ar
    10    14     8  ar
    11    15     9  ar
    12    10    11  ar
    13    16    10  ar
    14    11    17  ar
    15    15    12  ar
    16    12    21   1
    17    16    13  ar
    18    13    18  ar
    19    13    22   1
    20    24    14   1
    21    25    15   1
    22    26    16   1
    23    18    17  ar
    24    17    33   1
    25    18    34   1
    26    20    19   2
    27    27    20   1
    28    21    28  am
    29    21    31   2
    30    22    30  ar
    31    22    32  ar
    32    23    33   1
    33    34    23   1
    34    28    24   1
    35    29    25   1
    36    29    26   1
    37    27    29   1
    38     1    35   1
    39     2    36   1
    40     3    37   1
    41     4    38   1
    42     5    39   1
    43     6    40   1
    44     7    41   1
    45     8    42   1
    46     9    43   1
    47    10    44   1
    48    11    45   1
    49    19    46   1
    50    19    47   1
    51    20    48   1
    52    23    49   1
    53    23    50   1
    54    24    51   1
    55    24    52   1
    56    25    53   1
    57    25    54   1
    58    26    55   1
    59    26    56   1
    60    27    57   1
    61    27    58   1
    62    28    59   1
    63    29    60   1
@<TRIPOS>SUBSTRUCTURE
     1  N44      1

