@<TRIPOS>MOLECULE
3zsx_ligand_003
    60    63
SMALL
GAST_HUCK
****
This file was generated by PARSER (from files_GN.cpp)

@<TRIPOS>ATOM
      1 C1        -22.7434   45.3493   -9.7205 C.ar        1 N44      -0.0687
      2 C2        -16.3720   43.0469   -5.8703 C.ar        1 N44      -0.0630
      3 C3        -22.5835   46.6958   -9.3493 C.ar        1 N44      -0.0685
      4 C4        -22.2875   44.3263   -8.8700 C.ar        1 N44      -0.0685
      5 C5        -15.1690   43.5499   -5.3766 C.ar        1 N44      -0.0640
      6 C6        -17.5606   43.7506   -5.6386 C.ar        1 N44      -0.0483
      7 C7        -21.9650   47.0225   -8.1267 C.ar        1 N44      -0.0584
      8 C8        -21.6756   44.6524   -7.6459 C.ar        1 N44      -0.0584
      9 C9        -15.1764   44.6836   -4.5507 C.ar        1 N44      -0.0493
     10 C10       -12.1408   45.0358   -2.0653 C.ar        1 N44      -0.0712
     11 C11       -11.0615   44.2341   -1.6514 C.ar        1 N44      -0.0449
     12 C12       -17.5994   44.9248   -4.8337 C.ar        1 N44       0.0564
     13 C13       -12.7939   45.4180    0.2622 C.ar        1 N44       0.0376
     14 C14       -21.4989   46.0034   -7.2630 C.ar        1 N44      -0.0211
     15 C15       -16.3819   45.3307   -4.1801 C.ar        1 N44       0.0219
     16 C16       -13.0325   45.6273   -1.1289 C.ar        1 N44      -0.0032
     17 C17       -10.8673   44.0208   -0.2808 C.ar        1 N44       0.1200
     18 C18       -11.7103   44.6000    0.6544 C.ar        1 N44       0.1327
     19 C19       -18.2774   44.6152   -0.9424 C.2         1 N44      -0.1125
     20 C20       -17.0328   44.3339   -0.5253 C.2         1 N44      -0.0447
     21 C21       -18.8338   45.6020   -4.7647 C.2         1 N44       0.2021
     22 C22       -13.5935   45.9844    1.2700 C.2         1 N44       0.0515
     23 C23       -10.2089   43.4143    1.6847 C.3         1 N44       0.1864
     24 C24       -20.8751   46.3214   -5.9562 C.3         1 N44       0.0638
     25 C25       -16.2674   46.3408   -3.0666 C.3         1 N44       0.0086
     26 C26       -14.1592   46.4697   -1.6465 C.3         1 N44       0.0003
     27 C27       -15.8465   44.4744   -1.3595 C.3         1 N44      -0.0011
     28 N28       -19.5606   45.7575   -5.8710 N.am        1 N44      -0.2760
     29 N29       -15.5695   45.9073   -1.7866 N.4         1 N44       0.2715
     30 O30       -14.5117   45.2027    1.8756 O.co2       1 N44      -0.5668
     31 O31       -19.2866   45.9883   -3.6916 O.2         1 N44      -0.3884
     32 O32       -13.0940   47.0106    1.9928 O.co2       1 N44      -0.5668
     33 O33        -9.8917   43.2907    0.2876 O.3         1 N44      -0.2947
     34 O34       -11.3344   44.2809    1.9092 O.3         1 N44      -0.2890
     35 H1        -23.1854   45.1122  -10.6122 H           1 N44       0.0559
     36 H2        -16.3786   42.1931   -6.4332 H           1 N44       0.0572
     37 H3        -22.9159   47.4386   -9.9675 H           1 N44       0.0599
     38 H4        -22.4022   43.3470   -9.1387 H           1 N44       0.0599
     39 H5        -14.2993   43.0633   -5.5871 H           1 N44       0.0635
     40 H6        -18.4151   43.3746   -6.0690 H           1 N44       0.0651
     41 H7        -21.8632   48.0073   -7.8719 H           1 N44       0.0557
     42 H8        -21.3570   43.8961   -7.0347 H           1 N44       0.0557
     43 H9        -14.2783   44.9882   -4.1741 H           1 N44       0.0570
     44 H10       -12.2633   45.1886   -3.0710 H           1 N44       0.0445
     45 H11       -10.4256   43.8186   -2.3363 H           1 N44       0.0514
     46 H12       -19.0569   44.4305   -0.3466 H           1 N44       0.0292
     47 H13       -18.4454   44.9815   -1.8585 H           1 N44       0.0292
     48 H14       -16.9301   43.9436    0.3883 H           1 N44       0.0725
     49 H15        -9.3397   43.8082    2.2152 H           1 N44       0.0973
     50 H16       -10.4358   42.4248    2.0857 H           1 N44       0.0973
     51 H17       -21.5136   45.9045   -5.1737 H           1 N44       0.0683
     52 H18       -20.7959   47.3995   -5.7945 H           1 N44       0.0683
     53 H19       -17.2430   46.6774   -2.7402 H           1 N44       0.0995
     54 H20       -15.8057   47.2392   -3.4901 H           1 N44       0.0995
     55 H21       -13.8236   46.9053   -2.5901 H           1 N44       0.0966
     56 H22       -14.2406   47.3343   -0.9841 H           1 N44       0.0966
     57 H23       -15.9537   43.7891   -2.1999 H           1 N44       0.0998
     58 H24       -15.0174   44.0735   -0.7866 H           1 N44       0.0998
     59 H25       -19.1681   45.4461   -6.7096 H           1 N44       0.1869
     60 H26       -16.0700   46.4364   -1.0657 H           1 N44       0.2082
@<TRIPOS>BOND
     1     3     1  ar
     2     4     1  ar
     3     5     2  ar
     4     6     2  ar
     5     7     3  ar
     6     8     4  ar
     7     9     5  ar
     8    12     6  ar
     9    14     7  ar
    10    14     8  ar
    11    15     9  ar
    12    10    11  ar
    13    16    10  ar
    14    11    17  ar
    15    15    12  ar
    16    12    21   1
    17    16    13  ar
    18    13    18  ar
    19    13    22   1
    20    24    14   1
    21    25    15   1
    22    26    16   1
    23    18    17  ar
    24    17    33   1
    25    18    34   1
    26    20    19   2
    27    27    20   1
    28    21    28  am
    29    21    31   2
    30    22    30  ar
    31    22    32  ar
    32    23    33   1
    33    34    23   1
    34    28    24   1
    35    29    25   1
    36    29    26   1
    37    27    29   1
    38     1    35   1
    39     2    36   1
    40     3    37   1
    41     4    38   1
    42     5    39   1
    43     6    40   1
    44     7    41   1
    45     8    42   1
    46     9    43   1
    47    10    44   1
    48    11    45   1
    49    19    46   1
    50    19    47   1
    51    20    48   1
    52    23    49   1
    53    23    50   1
    54    24    51   1
    55    24    52   1
    56    25    53   1
    57    25    54   1
    58    26    55   1
    59    26    56   1
    60    27    57   1
    61    27    58   1
    62    28    59   1
    63    29    60   1
@<TRIPOS>SUBSTRUCTURE
     1  N44      1

