@<TRIPOS>MOLECULE
3zsx_ligand_052
    60    63
SMALL
GAST_HUCK
****
This file was generated by PARSER (from files_GN.cpp)

@<TRIPOS>ATOM
      1 C1        -14.0612   52.0875   -0.9259 C.ar        1 N44      -0.0687
      2 C2        -17.5247   44.3302   -5.2793 C.ar        1 N44      -0.0630
      3 C3        -14.9074   52.6912   -1.8769 C.ar        1 N44      -0.0685
      4 C4        -14.2448   50.7291   -0.5952 C.ar        1 N44      -0.0685
      5 C5        -16.6237   43.5468   -4.5451 C.ar        1 N44      -0.0640
      6 C6        -17.8402   45.6271   -4.8389 C.ar        1 N44      -0.0483
      7 C7        -15.9275   51.9451   -2.4951 C.ar        1 N44      -0.0584
      8 C8        -15.2686   49.9812   -1.2059 C.ar        1 N44      -0.0584
      9 C9        -16.0197   44.0706   -3.3949 C.ar        1 N44      -0.0493
     10 C10       -12.0485   44.0908    0.1554 C.ar        1 N44      -0.0712
     11 C11       -10.8088   43.5708    0.5700 C.ar        1 N44      -0.0449
     12 C12       -17.2553   46.1746   -3.6625 C.ar        1 N44       0.0564
     13 C13       -11.4541   46.3055    1.0413 C.ar        1 N44       0.0376
     14 C14       -16.1230   50.5806   -2.1630 C.ar        1 N44      -0.0211
     15 C15       -16.3144   45.3760   -2.9228 C.ar        1 N44       0.0219
     16 C16       -12.3911   45.4577    0.3645 C.ar        1 N44      -0.0032
     17 C17        -9.8897   44.4269    1.1912 C.ar        1 N44       0.1200
     18 C18       -10.1985   45.7621    1.4109 C.ar        1 N44       0.1327
     19 C19       -11.1376   44.6430   -2.7404 C.2         1 N44      -0.1125
     20 C20       -12.4645   44.6455   -2.9444 C.2         1 N44      -0.0447
     21 C21       -17.6847   47.4525   -3.2944 C.2         1 N44       0.2021
     22 C22       -11.7555   47.6327    1.4387 C.2         1 N44       0.0515
     23 C23        -8.3426   45.2713    2.4202 C.3         1 N44       0.1864
     24 C24       -17.2550   49.8047   -2.7295 C.3         1 N44       0.0638
     25 C25       -15.6885   45.7826   -1.6235 C.3         1 N44       0.0086
     26 C26       -13.7416   45.9225   -0.0927 C.3         1 N44       0.0003
     27 C27       -13.3410   45.7515   -2.5908 C.3         1 N44      -0.0011
     28 N28       -16.8649   48.4929   -3.1517 N.am        1 N44      -0.2760
     29 N29       -14.2377   45.4033   -1.4230 N.4         1 N44       0.2715
     30 O30       -10.9534   48.6696    1.1017 O.co2       1 N44      -0.5668
     31 O31       -18.8909   47.6063   -3.0981 O.2         1 N44      -0.3884
     32 O32       -12.6127   47.8293    2.4684 O.co2       1 N44      -0.5668
     33 O33        -8.6806   44.0905    1.6747 O.3         1 N44      -0.2947
     34 O34        -9.1944   46.3787    2.0709 O.3         1 N44      -0.2890
     35 H1        -13.3210   52.6304   -0.4675 H           1 N44       0.0559
     36 H2        -17.9771   43.9481   -6.1141 H           1 N44       0.0572
     37 H3        -14.7762   53.6759   -2.1148 H           1 N44       0.0599
     38 H4        -13.6314   50.2855    0.0985 H           1 N44       0.0599
     39 H5        -16.4011   42.5985   -4.8631 H           1 N44       0.0635
     40 H6        -18.5270   46.1634   -5.3864 H           1 N44       0.0651
     41 H7        -16.5379   52.4074   -3.1750 H           1 N44       0.0557
     42 H8        -15.3922   48.9976   -0.9378 H           1 N44       0.0557
     43 H9        -15.3898   43.4595   -2.8718 H           1 N44       0.0570
     44 H10       -12.7193   43.4490   -0.2836 H           1 N44       0.0445
     45 H11       -10.5798   42.5871    0.4285 H           1 N44       0.0514
     46 H12       -10.6005   43.8556   -3.0193 H           1 N44       0.0292
     47 H13       -10.6923   45.4043   -2.2891 H           1 N44       0.0292
     48 H14       -12.8671   43.8587   -3.4068 H           1 N44       0.0725
     49 H15        -7.3026   45.5368    2.2276 H           1 N44       0.0973
     50 H16        -8.4461   45.0668    3.4898 H           1 N44       0.0973
     51 H17       -17.7143   50.3167   -3.5774 H           1 N44       0.0683
     52 H18       -18.0168   49.7247   -1.9505 H           1 N44       0.0683
     53 H19       -16.2807   45.2777   -0.8505 H           1 N44       0.0995
     54 H20       -15.8031   46.8516   -1.4498 H           1 N44       0.0995
     55 H21       -13.7932   47.0143   -0.1223 H           1 N44       0.0966
     56 H22       -14.4250   45.6126    0.7032 H           1 N44       0.0966
     57 H23       -13.9429   45.9419   -3.4923 H           1 N44       0.0998
     58 H24       -12.7740   46.6760   -2.3729 H           1 N44       0.0998
     59 H25       -15.9202   48.3343   -3.3191 H           1 N44       0.1869
     60 H26       -14.2399   44.3821   -1.3445 H           1 N44       0.2082
@<TRIPOS>BOND
     1     3     1  ar
     2     4     1  ar
     3     5     2  ar
     4     6     2  ar
     5     7     3  ar
     6     8     4  ar
     7     9     5  ar
     8    12     6  ar
     9    14     7  ar
    10    14     8  ar
    11    15     9  ar
    12    10    11  ar
    13    16    10  ar
    14    11    17  ar
    15    15    12  ar
    16    12    21   1
    17    16    13  ar
    18    13    18  ar
    19    13    22   1
    20    24    14   1
    21    25    15   1
    22    26    16   1
    23    18    17  ar
    24    17    33   1
    25    18    34   1
    26    20    19   2
    27    27    20   1
    28    21    28  am
    29    21    31   2
    30    22    30  ar
    31    22    32  ar
    32    23    33   1
    33    34    23   1
    34    28    24   1
    35    29    25   1
    36    29    26   1
    37    27    29   1
    38     1    35   1
    39     2    36   1
    40     3    37   1
    41     4    38   1
    42     5    39   1
    43     6    40   1
    44     7    41   1
    45     8    42   1
    46     9    43   1
    47    10    44   1
    48    11    45   1
    49    19    46   1
    50    19    47   1
    51    20    48   1
    52    23    49   1
    53    23    50   1
    54    24    51   1
    55    24    52   1
    56    25    53   1
    57    25    54   1
    58    26    55   1
    59    26    56   1
    60    27    57   1
    61    27    58   1
    62    28    59   1
    63    29    60   1
@<TRIPOS>SUBSTRUCTURE
     1  N44      1

