@<TRIPOS>MOLECULE
3zsx_ligand_081
    60    63
SMALL
GAST_HUCK
****
This file was generated by PARSER (from files_GN.cpp)

@<TRIPOS>ATOM
      1 C1        -12.6053   48.1195    6.8317 C.ar        1 N44      -0.0687
      2 C2        -15.0540   50.7052   -1.3410 C.ar        1 N44      -0.0630
      3 C3        -13.5148   49.1876    6.7521 C.ar        1 N44      -0.0685
      4 C4        -11.5780   48.0023    5.8738 C.ar        1 N44      -0.0685
      5 C5        -15.5003   49.3833   -1.4852 C.ar        1 N44      -0.0640
      6 C6        -14.0593   51.0118   -0.3990 C.ar        1 N44      -0.0483
      7 C7        -13.4022   50.1380    5.7213 C.ar        1 N44      -0.0584
      8 C8        -11.4635   48.9549    4.8425 C.ar        1 N44      -0.0584
      9 C9        -14.9417   48.3670   -0.6975 C.ar        1 N44      -0.0493
     10 C10       -10.1636   45.3077   -1.2631 C.ar        1 N44      -0.0712
     11 C11        -9.1521   44.3505   -1.4506 C.ar        1 N44      -0.0449
     12 C12       -13.4976   49.9981    0.4108 C.ar        1 N44       0.0564
     13 C13       -11.8796   43.5429   -1.2215 C.ar        1 N44       0.0376
     14 C14       -12.3677   50.0411    4.7612 C.ar        1 N44      -0.0211
     15 C15       -13.9317   48.6478    0.2488 C.ar        1 N44       0.0219
     16 C16       -11.5248   44.9260   -1.1191 C.ar        1 N44      -0.0032
     17 C17        -9.5008   42.9946   -1.4197 C.ar        1 N44       0.1200
     18 C18       -10.8305   42.6005   -1.3239 C.ar        1 N44       0.1327
     19 C19        -9.2414   46.6315    2.8029 C.2         1 N44      -0.1125
     20 C20       -10.0523   46.8101    1.7348 C.2         1 N44      -0.0447
     21 C21       -12.5779   50.3675    1.3717 C.2         1 N44       0.2021
     22 C22       -13.2185   43.0723   -1.3207 C.2         1 N44       0.0515
     23 C23        -9.5811   40.8435   -1.5964 C.3         1 N44       0.1864
     24 C24       -12.2295   51.0770    3.7084 C.3         1 N44       0.0638
     25 C25       -13.3996   47.5320    1.0902 C.3         1 N44       0.0086
     26 C26       -12.4933   45.9949   -0.7052 C.3         1 N44       0.0003
     27 C27       -11.3540   46.1811    1.6212 C.3         1 N44      -0.0011
     28 N28       -13.0195   50.7213    2.5695 N.am        1 N44      -0.2760
     29 N29       -12.1848   46.8285    0.5229 N.4         1 N44       0.2715
     30 O30       -13.5752   41.8245   -0.9340 O.co2       1 N44      -0.5668
     31 O31       -11.3905   50.2558    1.0996 O.2         1 N44      -0.3884
     32 O32       -14.0985   43.6989   -2.1401 O.co2       1 N44      -0.5668
     33 O33        -8.6609   41.9451   -1.5158 O.3         1 N44      -0.2947
     34 O34       -10.9416   41.2577   -1.3970 O.3         1 N44      -0.2890
     35 H1        -12.6930   47.4203    7.5759 H           1 N44       0.0559
     36 H2        -15.4482   51.4470   -1.9213 H           1 N44       0.0572
     37 H3        -14.2625   49.2724    7.4465 H           1 N44       0.0599
     38 H4        -10.9087   47.2302    5.9401 H           1 N44       0.0599
     39 H5        -16.2325   49.1628   -2.1677 H           1 N44       0.0635
     40 H6        -13.7442   51.9825   -0.3141 H           1 N44       0.0651
     41 H7        -14.0707   50.9130    5.6856 H           1 N44       0.0557
     42 H8        -10.7081   48.8521    4.1626 H           1 N44       0.0557
     43 H9        -15.2943   47.4146   -0.8205 H           1 N44       0.0570
     44 H10        -9.8964   46.2966   -1.2228 H           1 N44       0.0445
     45 H11        -8.1788   44.6286   -1.5978 H           1 N44       0.0514
     46 H12        -8.3580   47.0753    2.8403 H           1 N44       0.0292
     47 H13        -9.5049   46.0259    3.5443 H           1 N44       0.0292
     48 H14        -9.7504   47.4613    1.0418 H           1 N44       0.0725
     49 H15        -9.3257   40.0922   -0.8493 H           1 N44       0.0973
     50 H16        -9.4963   40.3941   -2.5838 H           1 N44       0.0973
     51 H17       -11.1744   51.2184    3.4569 H           1 N44       0.0683
     52 H18       -12.5937   52.0396    4.0640 H           1 N44       0.0683
     53 H19       -14.1927   46.7953    1.2816 H           1 N44       0.0995
     54 H20       -13.1737   47.9533    2.0773 H           1 N44       0.0995
     55 H21       -13.4910   45.5748   -0.5908 H           1 N44       0.0966
     56 H22       -12.5415   46.6830   -1.5548 H           1 N44       0.0966
     57 H23       -11.8544   46.2093    2.5928 H           1 N44       0.0998
     58 H24       -11.1931   45.1192    1.4480 H           1 N44       0.0998
     59 H25       -13.9830   50.7377    2.6970 H           1 N44       0.1869
     60 H26       -11.5983   47.5860    0.1627 H           1 N44       0.2082
@<TRIPOS>BOND
     1     3     1  ar
     2     4     1  ar
     3     5     2  ar
     4     6     2  ar
     5     7     3  ar
     6     8     4  ar
     7     9     5  ar
     8    12     6  ar
     9    14     7  ar
    10    14     8  ar
    11    15     9  ar
    12    10    11  ar
    13    16    10  ar
    14    11    17  ar
    15    15    12  ar
    16    12    21   1
    17    16    13  ar
    18    13    18  ar
    19    13    22   1
    20    24    14   1
    21    25    15   1
    22    26    16   1
    23    18    17  ar
    24    17    33   1
    25    18    34   1
    26    20    19   2
    27    27    20   1
    28    21    28  am
    29    21    31   2
    30    22    30  ar
    31    22    32  ar
    32    23    33   1
    33    34    23   1
    34    28    24   1
    35    29    25   1
    36    29    26   1
    37    27    29   1
    38     1    35   1
    39     2    36   1
    40     3    37   1
    41     4    38   1
    42     5    39   1
    43     6    40   1
    44     7    41   1
    45     8    42   1
    46     9    43   1
    47    10    44   1
    48    11    45   1
    49    19    46   1
    50    19    47   1
    51    20    48   1
    52    23    49   1
    53    23    50   1
    54    24    51   1
    55    24    52   1
    56    25    53   1
    57    25    54   1
    58    26    55   1
    59    26    56   1
    60    27    57   1
    61    27    58   1
    62    28    59   1
    63    29    60   1
@<TRIPOS>SUBSTRUCTURE
     1  N44      1

