@<TRIPOS>MOLECULE
3zsx_ligand_047
    60    63
SMALL
GAST_HUCK
****
This file was generated by PARSER (from files_GN.cpp)

@<TRIPOS>ATOM
      1 C1        -21.3913   39.2708   -9.6815 C.ar        1 N44      -0.0687
      2 C2        -23.3252   46.6630   -9.7700 C.ar        1 N44      -0.0630
      3 C3        -20.0349   39.6325   -9.6217 C.ar        1 N44      -0.0685
      4 C4        -22.3486   40.0120   -8.9672 C.ar        1 N44      -0.0685
      5 C5        -23.1053   48.0122   -9.4697 C.ar        1 N44      -0.0640
      6 C6        -22.6621   45.6679   -9.0312 C.ar        1 N44      -0.0483
      7 C7        -19.6330   40.7411   -8.8529 C.ar        1 N44      -0.0584
      8 C8        -21.9501   41.1229   -8.2014 C.ar        1 N44      -0.0584
      9 C9        -22.2302   48.3673   -8.4327 C.ar        1 N44      -0.0493
     10 C10       -18.2899   49.2084   -4.4235 C.ar        1 N44      -0.0712
     11 C11       -17.9168   50.4046   -3.7771 C.ar        1 N44      -0.0449
     12 C12       -21.7586   46.0038   -7.9872 C.ar        1 N44       0.0564
     13 C13       -16.3499   49.3750   -5.9101 C.ar        1 N44       0.0376
     14 C14       -20.5877   41.5052   -8.1386 C.ar        1 N44      -0.0211
     15 C15       -21.5240   47.3853   -7.6942 C.ar        1 N44       0.0219
     16 C16       -17.5324   48.6770   -5.5007 C.ar        1 N44      -0.0032
     17 C17       -16.7895   51.0999   -4.2355 C.ar        1 N44       0.1200
     18 C18       -16.0309   50.6017   -5.2811 C.ar        1 N44       0.1327
     19 C19       -17.9437   47.5165  -10.5978 C.2         1 N44      -0.1125
     20 C20       -17.7338   47.7627   -9.2938 C.2         1 N44      -0.0447
     21 C21       -21.1751   44.9495   -7.2846 C.2         1 N44       0.2021
     22 C22       -15.4956   48.9308   -6.9445 C.2         1 N44       0.0515
     23 C23       -15.3006   52.5723   -4.7575 C.3         1 N44       0.1864
     24 C24       -20.1879   42.6893   -7.3368 C.3         1 N44       0.0638
     25 C25       -20.4708   47.8690   -6.7320 C.3         1 N44       0.0086
     26 C26       -18.0381   47.4267   -6.1669 C.3         1 N44       0.0003
     27 C27       -18.6827   48.4296   -8.4136 C.3         1 N44      -0.0011
     28 N28       -20.7091   43.8839   -7.9270 N.am        1 N44      -0.2760
     29 N29       -19.0878   47.5669   -7.2427 N.4         1 N44       0.2715
     30 O30       -15.0331   49.7819   -7.8859 O.co2       1 N44      -0.5668
     31 O31       -21.1910   44.9788   -6.0609 O.2         1 N44      -0.3884
     32 O32       -14.9119   47.7144   -6.8939 O.co2       1 N44      -0.5668
     33 O33       -16.2996   52.2666   -3.7674 O.3         1 N44      -0.2947
     34 O34       -14.9860   51.4123   -5.5476 O.3         1 N44      -0.2890
     35 H1        -21.6830   38.4698  -10.2486 H           1 N44       0.0559
     36 H2        -23.9592   46.4002  -10.5246 H           1 N44       0.0572
     37 H3        -19.3410   39.0963  -10.1448 H           1 N44       0.0599
     38 H4        -23.3355   39.7472   -9.0080 H           1 N44       0.0599
     39 H5        -23.5661   48.7378  -10.0200 H           1 N44       0.0635
     40 H6        -22.8598   44.6911   -9.2673 H           1 N44       0.0651
     41 H7        -18.6414   40.9908   -8.8250 H           1 N44       0.0557
     42 H8        -22.6583   41.6528   -7.6887 H           1 N44       0.0557
     43 H9        -22.0701   49.3654   -8.2584 H           1 N44       0.0570
     44 H10       -19.1307   48.7290   -4.0919 H           1 N44       0.0445
     45 H11       -18.4619   50.7651   -2.9874 H           1 N44       0.0514
     46 H12       -17.2231   47.1046  -11.1440 H           1 N44       0.0292
     47 H13       -18.8049   47.7488  -11.0326 H           1 N44       0.0292
     48 H14       -16.8612   47.4905   -8.9175 H           1 N44       0.0725
     49 H15       -14.3928   52.9322   -4.2703 H           1 N44       0.0973
     50 H16       -15.6712   53.3683   -5.4114 H           1 N44       0.0973
     51 H17       -19.1006   42.7896   -7.2908 H           1 N44       0.0683
     52 H18       -20.5480   42.5466   -6.3131 H           1 N44       0.0683
     53 H19       -20.6528   47.4099   -5.7598 H           1 N44       0.0995
     54 H20       -20.5393   48.9472   -6.5568 H           1 N44       0.0995
     55 H21       -18.4074   46.7467   -5.3944 H           1 N44       0.0966
     56 H22       -17.2107   46.8771   -6.6090 H           1 N44       0.0966
     57 H23       -19.5582   48.7145   -9.0002 H           1 N44       0.0998
     58 H24       -18.2411   49.3666   -8.0692 H           1 N44       0.0998
     59 H25       -20.7035   43.9206   -8.8977 H           1 N44       0.1869
     60 H26       -19.1384   46.6228   -7.6337 H           1 N44       0.2082
@<TRIPOS>BOND
     1     3     1  ar
     2     4     1  ar
     3     5     2  ar
     4     6     2  ar
     5     7     3  ar
     6     8     4  ar
     7     9     5  ar
     8    12     6  ar
     9    14     7  ar
    10    14     8  ar
    11    15     9  ar
    12    10    11  ar
    13    16    10  ar
    14    11    17  ar
    15    15    12  ar
    16    12    21   1
    17    16    13  ar
    18    13    18  ar
    19    13    22   1
    20    24    14   1
    21    25    15   1
    22    26    16   1
    23    18    17  ar
    24    17    33   1
    25    18    34   1
    26    20    19   2
    27    27    20   1
    28    21    28  am
    29    21    31   2
    30    22    30  ar
    31    22    32  ar
    32    23    33   1
    33    34    23   1
    34    28    24   1
    35    29    25   1
    36    29    26   1
    37    27    29   1
    38     1    35   1
    39     2    36   1
    40     3    37   1
    41     4    38   1
    42     5    39   1
    43     6    40   1
    44     7    41   1
    45     8    42   1
    46     9    43   1
    47    10    44   1
    48    11    45   1
    49    19    46   1
    50    19    47   1
    51    20    48   1
    52    23    49   1
    53    23    50   1
    54    24    51   1
    55    24    52   1
    56    25    53   1
    57    25    54   1
    58    26    55   1
    59    26    56   1
    60    27    57   1
    61    27    58   1
    62    28    59   1
    63    29    60   1
@<TRIPOS>SUBSTRUCTURE
     1  N44      1

