@<TRIPOS>MOLECULE
3zsx_ligand_001
    60    63
SMALL
GAST_HUCK
****
This file was generated by PARSER (from files_GN.cpp)

@<TRIPOS>ATOM
      1 C1        -21.9036   42.5867    0.9419 C.ar        1 N44      -0.0687
      2 C2        -18.8918   50.2521   -2.0877 C.ar        1 N44      -0.0630
      3 C3        -22.5502   42.3083   -0.2751 C.ar        1 N44      -0.0685
      4 C4        -21.1060   43.7374    1.0641 C.ar        1 N44      -0.0685
      5 C5        -17.4934   50.3045   -2.1601 C.ar        1 N44      -0.0640
      6 C6        -19.5619   49.0522   -2.3664 C.ar        1 N44      -0.0483
      7 C7        -22.3952   43.1806   -1.3673 C.ar        1 N44      -0.0584
      8 C8        -20.9392   44.6006   -0.0333 C.ar        1 N44      -0.0584
      9 C9        -16.7763   49.1479   -2.4991 C.ar        1 N44      -0.0493
     10 C10       -12.5422   45.2955   -2.2624 C.ar        1 N44      -0.0712
     11 C11       -11.4147   44.4876   -2.0192 C.ar        1 N44      -0.0449
     12 C12       -18.8549   47.8746   -2.7216 C.ar        1 N44       0.0564
     13 C13       -12.9634   45.4736    0.1461 C.ar        1 N44       0.0376
     14 C14       -21.5897   44.3422   -1.2669 C.ar        1 N44      -0.0211
     15 C15       -17.4196   47.9072   -2.7561 C.ar        1 N44       0.0219
     16 C16       -13.3620   45.7710   -1.1979 C.ar        1 N44      -0.0032
     17 C17       -11.0755   44.1771   -0.6965 C.ar        1 N44       0.1200
     18 C18       -11.8316   44.6520    0.3663 C.ar        1 N44       0.1327
     19 C19       -14.9888   44.3994   -4.3764 C.2         1 N44      -0.1125
     20 C20       -15.6021   43.8683   -3.3112 C.2         1 N44      -0.0447
     21 C21       -19.6160   46.7537   -3.0517 C.2         1 N44       0.2021
     22 C22       -13.6414   45.9828    1.2718 C.2         1 N44       0.0515
     23 C23       -10.2273   43.4073    1.1343 C.3         1 N44       0.1864
     24 C24       -21.4883   45.2399   -2.4515 C.3         1 N44       0.0638
     25 C25       -16.5486   46.7343   -3.0993 C.3         1 N44       0.0086
     26 C26       -14.5300   46.6639   -1.5305 C.3         1 N44       0.0003
     27 C27       -15.8969   44.5416   -2.0386 C.3         1 N44      -0.0011
     28 N28       -20.6255   46.3768   -2.2782 N.am        1 N44      -0.2760
     29 N29       -15.8544   46.0459   -1.9322 N.4         1 N44       0.2715
     30 O30       -13.0705   47.0059    1.9531 O.co2       1 N44      -0.5668
     31 O31       -19.4082   46.2001   -4.1250 O.2         1 N44      -0.3884
     32 O32       -14.4559   45.1533    1.9699 O.co2       1 N44      -0.5668
     33 O33       -10.0125   43.4619   -0.2890 O.3         1 N44      -0.2947
     34 O34       -11.3073   44.2645    1.5524 O.3         1 N44      -0.2890
     35 H1        -22.0232   41.9583    1.7370 H           1 N44       0.0559
     36 H2        -19.4219   51.1024   -1.8529 H           1 N44       0.0572
     37 H3        -23.1352   41.4769   -0.3651 H           1 N44       0.0599
     38 H4        -20.6478   43.9520    1.9523 H           1 N44       0.0599
     39 H5        -17.0016   51.1813   -1.9683 H           1 N44       0.0635
     40 H6        -20.5875   49.0670   -2.3405 H           1 N44       0.0651
     41 H7        -22.8787   42.9631   -2.2448 H           1 N44       0.0557
     42 H8        -20.3529   45.4280    0.0898 H           1 N44       0.0557
     43 H9        -15.7583   49.2259   -2.5541 H           1 N44       0.0570
     44 H10       -12.7726   45.5165   -3.2442 H           1 N44       0.0445
     45 H11       -10.8430   44.1583   -2.8010 H           1 N44       0.0514
     46 H12       -14.9307   43.8767   -5.2250 H           1 N44       0.0292
     47 H13       -14.6164   45.3236   -4.3588 H           1 N44       0.0292
     48 H14       -15.9568   42.9369   -3.4005 H           1 N44       0.0725
     49 H15        -9.3145   43.7049    1.6482 H           1 N44       0.0973
     50 H16       -10.4538   42.3798    1.4195 H           1 N44       0.0973
     51 H17       -22.4857   45.6226   -2.6716 H           1 N44       0.0683
     52 H18       -21.1680   44.6337   -3.3084 H           1 N44       0.0683
     53 H19       -15.8247   47.0813   -3.8405 H           1 N44       0.0995
     54 H20       -17.1372   46.0010   -3.6431 H           1 N44       0.0995
     55 H21       -14.2032   47.3616   -2.3096 H           1 N44       0.0966
     56 H22       -14.7228   47.2727   -0.6361 H           1 N44       0.0966
     57 H23       -15.2538   44.1023   -1.2703 H           1 N44       0.0998
     58 H24       -16.9216   44.2534   -1.7668 H           1 N44       0.0998
     59 H25       -20.7896   46.9214   -1.4903 H           1 N44       0.1869
     60 H26       -16.4638   46.2199   -1.1175 H           1 N44       0.2082
@<TRIPOS>BOND
     1     3     1  ar
     2     4     1  ar
     3     5     2  ar
     4     6     2  ar
     5     7     3  ar
     6     8     4  ar
     7     9     5  ar
     8    12     6  ar
     9    14     7  ar
    10    14     8  ar
    11    15     9  ar
    12    10    11  ar
    13    16    10  ar
    14    11    17  ar
    15    15    12  ar
    16    12    21   1
    17    16    13  ar
    18    13    18  ar
    19    13    22   1
    20    24    14   1
    21    25    15   1
    22    26    16   1
    23    18    17  ar
    24    17    33   1
    25    18    34   1
    26    20    19   2
    27    27    20   1
    28    21    28  am
    29    21    31   2
    30    22    30  ar
    31    22    32  ar
    32    23    33   1
    33    34    23   1
    34    28    24   1
    35    29    25   1
    36    29    26   1
    37    27    29   1
    38     1    35   1
    39     2    36   1
    40     3    37   1
    41     4    38   1
    42     5    39   1
    43     6    40   1
    44     7    41   1
    45     8    42   1
    46     9    43   1
    47    10    44   1
    48    11    45   1
    49    19    46   1
    50    19    47   1
    51    20    48   1
    52    23    49   1
    53    23    50   1
    54    24    51   1
    55    24    52   1
    56    25    53   1
    57    25    54   1
    58    26    55   1
    59    26    56   1
    60    27    57   1
    61    27    58   1
    62    28    59   1
    63    29    60   1
@<TRIPOS>SUBSTRUCTURE
     1  N44      1

