@<TRIPOS>MOLECULE
3zsx_ligand_071
    60    63
SMALL
GAST_HUCK
****
This file was generated by PARSER (from files_GN.cpp)

@<TRIPOS>ATOM
      1 C1        -23.6482   42.4683  -11.0189 C.ar        1 N44      -0.0687
      2 C2        -17.1027   44.3141   -5.1266 C.ar        1 N44      -0.0630
      3 C3        -22.3490   42.9464  -11.2702 C.ar        1 N44      -0.0685
      4 C4        -23.8767   41.5912   -9.9438 C.ar        1 N44      -0.0685
      5 C5        -17.4777   45.6161   -4.7763 C.ar        1 N44      -0.0640
      6 C6        -17.9838   43.5083   -5.8652 C.ar        1 N44      -0.0483
      7 C7        -21.2807   42.5457  -10.4496 C.ar        1 N44      -0.0584
      8 C8        -22.8089   41.1922   -9.1222 C.ar        1 N44      -0.0584
      9 C9        -18.7263   46.1141   -5.1812 C.ar        1 N44      -0.0493
     10 C10       -18.2440   47.7384   -9.0472 C.ar        1 N44      -0.0712
     11 C11       -16.8757   48.0517   -8.9683 C.ar        1 N44      -0.0449
     12 C12       -19.2542   43.9901   -6.2857 C.ar        1 N44       0.0564
     13 C13       -18.7051   49.0717   -7.0357 C.ar        1 N44       0.0376
     14 C14       -21.4947   41.6610   -9.3645 C.ar        1 N44      -0.0211
     15 C15       -19.6253   45.3322   -5.9519 C.ar        1 N44       0.0219
     16 C16       -19.1748   48.2183   -8.0856 C.ar        1 N44      -0.0032
     17 C17       -16.4279   48.8361   -7.8993 C.ar        1 N44       0.1200
     18 C18       -17.3143   49.3299   -6.9550 C.ar        1 N44       0.1327
     19 C19       -24.1046   45.8879   -9.5948 C.2         1 N44      -0.1125
     20 C20       -23.1525   46.2071   -8.7167 C.2         1 N44      -0.0447
     21 C21       -20.1017   43.0849   -6.9218 C.2         1 N44       0.2021
     22 C22       -19.5541   49.6747   -6.0751 C.2         1 N44       0.0515
     23 C23       -15.2832   49.8303   -6.3740 C.3         1 N44       0.1864
     24 C24       -20.3512   41.2160   -8.5262 C.3         1 N44       0.0638
     25 C25       -20.8788   45.9911   -6.4499 C.3         1 N44       0.0086
     26 C26       -20.5876   47.7632   -8.2480 C.3         1 N44       0.0003
     27 C27       -21.8148   45.6435   -8.7737 C.3         1 N44      -0.0011
     28 N28       -19.6469   42.2949   -7.8894 N.am        1 N44      -0.2760
     29 N29       -20.7704   46.3021   -7.9252 N.4         1 N44       0.2715
     30 O30       -19.1543   49.8541   -4.7946 O.co2       1 N44      -0.5668
     31 O31       -21.2371   42.9249   -6.4882 O.2         1 N44      -0.3884
     32 O32       -20.6196   50.4044   -6.4749 O.co2       1 N44      -0.5668
     33 O33       -15.1600   49.2139   -7.6660 O.3         1 N44      -0.2947
     34 O34       -16.6607   50.0910   -6.0519 O.3         1 N44      -0.2890
     35 H1        -24.4249   42.7619  -11.6115 H           1 N44       0.0559
     36 H2        -16.1986   43.9435   -4.8222 H           1 N44       0.0572
     37 H3        -22.1837   43.5951  -12.0422 H           1 N44       0.0599
     38 H4        -24.8206   41.2438   -9.7593 H           1 N44       0.0599
     39 H5        -16.8457   46.2038   -4.2267 H           1 N44       0.0635
     40 H6        -17.6943   42.5422   -6.0581 H           1 N44       0.0651
     41 H7        -20.3409   42.9044  -10.6431 H           1 N44       0.0557
     42 H8        -22.9930   40.5458   -8.3492 H           1 N44       0.0557
     43 H9        -18.9693   47.0664   -4.9075 H           1 N44       0.0570
     44 H10       -18.5585   47.1460   -9.8233 H           1 N44       0.0445
     45 H11       -16.2203   47.7131   -9.6767 H           1 N44       0.0514
     46 H12       -25.0080   46.3032   -9.5400 H           1 N44       0.0292
     47 H13       -23.9347   45.2576  -10.3402 H           1 N44       0.0292
     48 H14       -23.3712   46.8669   -8.0065 H           1 N44       0.0725
     49 H15       -14.7221   50.7671   -6.3592 H           1 N44       0.0973
     50 H16       -14.8571   49.1626   -5.6167 H           1 N44       0.0973
     51 H17       -19.6422   40.6963   -9.1764 H           1 N44       0.0683
     52 H18       -20.6639   40.5054   -7.7581 H           1 N44       0.0683
     53 H19       -21.0819   46.8979   -5.8723 H           1 N44       0.0995
     54 H20       -21.7272   45.3425   -6.2191 H           1 N44       0.0995
     55 H21       -20.8587   47.9724   -9.2896 H           1 N44       0.0966
     56 H22       -21.2853   48.3534   -7.6576 H           1 N44       0.0966
     57 H23       -21.4560   45.6758   -9.8024 H           1 N44       0.0998
     58 H24       -21.8927   44.5878   -8.5135 H           1 N44       0.0998
     59 H25       -18.7265   42.4300   -8.1664 H           1 N44       0.1869
     60 H26       -19.8952   45.8556   -8.2207 H           1 N44       0.2082
@<TRIPOS>BOND
     1     3     1  ar
     2     4     1  ar
     3     5     2  ar
     4     6     2  ar
     5     7     3  ar
     6     8     4  ar
     7     9     5  ar
     8    12     6  ar
     9    14     7  ar
    10    14     8  ar
    11    15     9  ar
    12    10    11  ar
    13    16    10  ar
    14    11    17  ar
    15    15    12  ar
    16    12    21   1
    17    16    13  ar
    18    13    18  ar
    19    13    22   1
    20    24    14   1
    21    25    15   1
    22    26    16   1
    23    18    17  ar
    24    17    33   1
    25    18    34   1
    26    20    19   2
    27    27    20   1
    28    21    28  am
    29    21    31   2
    30    22    30  ar
    31    22    32  ar
    32    23    33   1
    33    34    23   1
    34    28    24   1
    35    29    25   1
    36    29    26   1
    37    27    29   1
    38     1    35   1
    39     2    36   1
    40     3    37   1
    41     4    38   1
    42     5    39   1
    43     6    40   1
    44     7    41   1
    45     8    42   1
    46     9    43   1
    47    10    44   1
    48    11    45   1
    49    19    46   1
    50    19    47   1
    51    20    48   1
    52    23    49   1
    53    23    50   1
    54    24    51   1
    55    24    52   1
    56    25    53   1
    57    25    54   1
    58    26    55   1
    59    26    56   1
    60    27    57   1
    61    27    58   1
    62    28    59   1
    63    29    60   1
@<TRIPOS>SUBSTRUCTURE
     1  N44      1

