@<TRIPOS>MOLECULE
3zsx_ligand_068
    60    63
SMALL
GAST_HUCK
****
This file was generated by PARSER (from files_GN.cpp)

@<TRIPOS>ATOM
      1 C1        -16.7063   53.8163   -0.4455 C.ar        1 N44      -0.0687
      2 C2        -16.6016   48.0310   -6.9058 C.ar        1 N44      -0.0630
      3 C3        -16.8722   53.7520   -1.8404 C.ar        1 N44      -0.0685
      4 C4        -17.2836   52.8331    0.3763 C.ar        1 N44      -0.0685
      5 C5        -15.7120   47.0487   -6.4469 C.ar        1 N44      -0.0640
      6 C6        -17.5233   48.6117   -6.0198 C.ar        1 N44      -0.0483
      7 C7        -17.6155   52.7026   -2.4123 C.ar        1 N44      -0.0584
      8 C8        -18.0226   51.7820   -0.1958 C.ar        1 N44      -0.0584
      9 C9        -15.7495   46.6455   -5.1015 C.ar        1 N44      -0.0493
     10 C10       -12.7773   45.5088   -2.3230 C.ar        1 N44      -0.0712
     11 C11       -11.3752   45.4645   -2.3956 C.ar        1 N44      -0.0449
     12 C12       -17.5778   48.2105   -4.6623 C.ar        1 N44       0.0564
     13 C13       -12.6857   45.8231    0.1135 C.ar        1 N44       0.0376
     14 C14       -18.1974   51.7027   -1.5981 C.ar        1 N44      -0.0211
     15 C15       -16.6775   47.2074   -4.1894 C.ar        1 N44       0.0219
     16 C16       -13.4571   45.7089   -1.0890 C.ar        1 N44      -0.0032
     17 C17       -10.6379   45.6108   -1.2158 C.ar        1 N44       0.1200
     18 C18       -11.2722   45.7887    0.0055 C.ar        1 N44       0.1327
     19 C19       -14.4752   49.0425    0.7571 C.2         1 N44      -0.1125
     20 C20       -14.3674   48.6867   -0.5318 C.2         1 N44      -0.0447
     21 C21       -18.5117   48.8320   -3.8515 C.2         1 N44       0.2021
     22 C22       -13.2498   45.9722    1.4049 C.2         1 N44       0.0515
     23 C23        -9.1236   45.6162    0.3142 C.3         1 N44       0.1864
     24 C24       -18.9757   50.6005   -2.2162 C.3         1 N44       0.0638
     25 C25       -16.6894   46.6463   -2.8033 C.3         1 N44       0.0086
     26 C26       -14.9506   45.8080   -1.1685 C.3         1 N44       0.0003
     27 C27       -15.5030   48.2899   -1.3563 C.3         1 N44      -0.0011
     28 N28       -18.1268   49.8254   -3.0662 N.am        1 N44      -0.2760
     29 N29       -15.4172   46.9513   -2.0414 N.4         1 N44       0.2715
     30 O30       -12.6516   46.7361    2.3449 O.co2       1 N44      -0.5668
     31 O31       -19.6894   48.5123   -3.9631 O.2         1 N44      -0.3884
     32 O32       -14.2625   45.1805    1.8272 O.co2       1 N44      -0.5668
     33 O33        -9.2972   45.6033   -1.1101 O.3         1 N44      -0.2947
     34 O34       -10.3584   45.9036    0.9941 O.3         1 N44      -0.2890
     35 H1        -16.1667   54.5792   -0.0295 H           1 N44       0.0559
     36 H2        -16.5740   48.3254   -7.8839 H           1 N44       0.0572
     37 H3        -16.4537   54.4677   -2.4387 H           1 N44       0.0599
     38 H4        -17.1684   52.8832    1.3914 H           1 N44       0.0599
     39 H5        -15.0385   46.6278   -7.0884 H           1 N44       0.0635
     40 H6        -18.1501   49.3395   -6.3763 H           1 N44       0.0651
     41 H7        -17.7254   52.6711   -3.4278 H           1 N44       0.0557
     42 H8        -18.4338   51.0750    0.4212 H           1 N44       0.0557
     43 H9        -15.1021   45.9138   -4.7994 H           1 N44       0.0570
     44 H10       -13.3010   45.4010   -3.1958 H           1 N44       0.0445
     45 H11       -10.9014   45.3356   -3.2923 H           1 N44       0.0514
     46 H12       -13.6741   49.3386    1.2638 H           1 N44       0.0292
     47 H13       -15.3478   49.0060    1.2323 H           1 N44       0.0292
     48 H14       -13.4674   48.7189   -0.9523 H           1 N44       0.0725
     49 H15        -8.3772   46.3668    0.5793 H           1 N44       0.0973
     50 H16        -8.7578   44.6385    0.6375 H           1 N44       0.0973
     51 H17       -19.7968   51.0326   -2.7917 H           1 N44       0.0683
     52 H18       -19.4065   49.9396   -1.4579 H           1 N44       0.0683
     53 H19       -16.8401   45.5704   -2.9265 H           1 N44       0.0995
     54 H20       -17.5636   46.9822   -2.2398 H           1 N44       0.0995
     55 H21       -15.4248   45.9000   -0.1943 H           1 N44       0.0966
     56 H22       -15.2747   44.8423   -1.5668 H           1 N44       0.0966
     57 H23       -15.5829   49.0562   -2.1269 H           1 N44       0.0998
     58 H24       -16.4195   48.3412   -0.7703 H           1 N44       0.0998
     59 H25       -17.1851   50.0646   -3.0841 H           1 N44       0.1869
     60 H26       -14.6957   47.0834   -2.7523 H           1 N44       0.2082
@<TRIPOS>BOND
     1     3     1  ar
     2     4     1  ar
     3     5     2  ar
     4     6     2  ar
     5     7     3  ar
     6     8     4  ar
     7     9     5  ar
     8    12     6  ar
     9    14     7  ar
    10    14     8  ar
    11    15     9  ar
    12    10    11  ar
    13    16    10  ar
    14    11    17  ar
    15    15    12  ar
    16    12    21   1
    17    16    13  ar
    18    13    18  ar
    19    13    22   1
    20    24    14   1
    21    25    15   1
    22    26    16   1
    23    18    17  ar
    24    17    33   1
    25    18    34   1
    26    20    19   2
    27    27    20   1
    28    21    28  am
    29    21    31   2
    30    22    30  ar
    31    22    32  ar
    32    23    33   1
    33    34    23   1
    34    28    24   1
    35    29    25   1
    36    29    26   1
    37    27    29   1
    38     1    35   1
    39     2    36   1
    40     3    37   1
    41     4    38   1
    42     5    39   1
    43     6    40   1
    44     7    41   1
    45     8    42   1
    46     9    43   1
    47    10    44   1
    48    11    45   1
    49    19    46   1
    50    19    47   1
    51    20    48   1
    52    23    49   1
    53    23    50   1
    54    24    51   1
    55    24    52   1
    56    25    53   1
    57    25    54   1
    58    26    55   1
    59    26    56   1
    60    27    57   1
    61    27    58   1
    62    28    59   1
    63    29    60   1
@<TRIPOS>SUBSTRUCTURE
     1  N44      1

