@<TRIPOS>MOLECULE
3zsx_ligand_008
    60    63
SMALL
GAST_HUCK
****
This file was generated by PARSER (from files_GN.cpp)

@<TRIPOS>ATOM
      1 C1         -7.8166   39.3001    0.1776 C.ar        1 N44      -0.0687
      2 C2         -9.5070   46.8212   -0.2806 C.ar        1 N44      -0.0630
      3 C3         -8.2773   39.1452   -1.1341 C.ar        1 N44      -0.0685
      4 C4         -8.5327   40.1095    1.0855 C.ar        1 N44      -0.0685
      5 C5        -10.4952   47.6663   -0.8126 C.ar        1 N44      -0.0640
      6 C6         -9.5730   45.4431   -0.5258 C.ar        1 N44      -0.0483
      7 C7         -9.4485   39.7997   -1.5555 C.ar        1 N44      -0.0584
      8 C8         -9.7171   40.7477    0.6692 C.ar        1 N44      -0.0584
      9 C9        -11.5619   47.1247   -1.5462 C.ar        1 N44      -0.0493
     10 C10       -14.9403   48.3148   -0.8288 C.ar        1 N44      -0.0712
     11 C11       -14.5887   49.4853   -0.1341 C.ar        1 N44      -0.0449
     12 C12       -10.6472   44.8839   -1.2602 C.ar        1 N44       0.0564
     13 C13       -13.8801   46.9306    0.8909 C.ar        1 N44       0.0376
     14 C14       -10.1910   40.6035   -0.6523 C.ar        1 N44      -0.0211
     15 C15       -11.7062   45.7278   -1.7380 C.ar        1 N44       0.0219
     16 C16       -14.5590   47.0271   -0.3568 C.ar        1 N44      -0.0032
     17 C17       -13.8685   49.3669    1.0639 C.ar        1 N44       0.1200
     18 C18       -13.5421   48.1220    1.5737 C.ar        1 N44       0.1327
     19 C19       -16.3662   43.5172   -3.1091 C.2         1 N44      -0.1125
     20 C20       -15.4454   44.1254   -3.8638 C.2         1 N44      -0.0447
     21 C21       -10.5803   43.5291   -1.5242 C.2         1 N44       0.2021
     22 C22       -13.5098   45.7034    1.4691 C.2         1 N44       0.0515
     23 C23       -12.6764   49.6537    2.8377 C.3         1 N44       0.1864
     24 C24       -11.4485   41.2725   -1.0903 C.3         1 N44       0.0638
     25 C25       -12.8343   45.2108   -2.5803 C.3         1 N44       0.0086
     26 C26       -14.8969   45.8589   -1.2185 C.3         1 N44       0.0003
     27 C27       -15.0469   45.5234   -3.7182 C.3         1 N44      -0.0011
     28 N28       -11.4236   42.6939   -0.9319 N.am        1 N44      -0.2760
     29 N29       -14.1795   45.9033   -2.5445 N.4         1 N44       0.2715
     30 O30       -12.2215   45.3199    1.4149 O.co2       1 N44      -0.5668
     31 O31        -9.6618   43.1192   -2.2241 O.2         1 N44      -0.3884
     32 O32       -14.2493   45.2294    2.4983 O.co2       1 N44      -0.5668
     33 O33       -13.4204   50.3725    1.8381 O.3         1 N44      -0.2947
     34 O34       -12.9115   48.2359    2.7584 O.3         1 N44      -0.2890
     35 H1         -6.9633   38.8283    0.4778 H           1 N44       0.0559
     36 H2         -8.7300   47.2091    0.2601 H           1 N44       0.0572
     37 H3         -7.7581   38.5573   -1.7936 H           1 N44       0.0599
     38 H4         -8.1911   40.2258    2.0387 H           1 N44       0.0599
     39 H5        -10.4203   48.6765   -0.6676 H           1 N44       0.0635
     40 H6         -8.8221   44.8479   -0.1570 H           1 N44       0.0651
     41 H7         -9.7633   39.6789   -2.5174 H           1 N44       0.0557
     42 H8        -10.2319   41.3246    1.3428 H           1 N44       0.0557
     43 H9        -12.2434   47.7704   -1.9496 H           1 N44       0.0570
     44 H10       -15.4724   48.4091   -1.6978 H           1 N44       0.0445
     45 H11       -14.8450   50.4062   -0.4949 H           1 N44       0.0514
     46 H12       -16.6337   42.5821   -3.3044 H           1 N44       0.0292
     47 H13       -16.8244   43.9881   -2.3680 H           1 N44       0.0292
     48 H14       -15.0637   43.6103   -4.6252 H           1 N44       0.0725
     49 H15       -12.9662   50.0121    3.8268 H           1 N44       0.0973
     50 H16       -11.6095   49.8475    2.6991 H           1 N44       0.0973
     51 H17       -12.2739   40.8826   -0.4903 H           1 N44       0.0683
     52 H18       -11.6809   41.0490   -2.1355 H           1 N44       0.0683
     53 H19       -13.0180   44.1595   -2.3610 H           1 N44       0.0995
     54 H20       -12.4509   45.2491   -3.6033 H           1 N44       0.0995
     55 H21       -15.9830   45.9066   -1.3481 H           1 N44       0.0966
     56 H22       -14.7036   44.9051   -0.7238 H           1 N44       0.0966
     57 H23       -15.9468   46.1463   -3.7195 H           1 N44       0.0998
     58 H24       -14.5096   45.8050   -4.6293 H           1 N44       0.0998
     59 H25       -12.1013   43.0828   -0.3560 H           1 N44       0.1869
     60 H26       -13.9741   46.8890   -2.7078 H           1 N44       0.2082
@<TRIPOS>BOND
     1     3     1  ar
     2     4     1  ar
     3     5     2  ar
     4     6     2  ar
     5     7     3  ar
     6     8     4  ar
     7     9     5  ar
     8    12     6  ar
     9    14     7  ar
    10    14     8  ar
    11    15     9  ar
    12    10    11  ar
    13    16    10  ar
    14    11    17  ar
    15    15    12  ar
    16    12    21   1
    17    16    13  ar
    18    13    18  ar
    19    13    22   1
    20    24    14   1
    21    25    15   1
    22    26    16   1
    23    18    17  ar
    24    17    33   1
    25    18    34   1
    26    20    19   2
    27    27    20   1
    28    21    28  am
    29    21    31   2
    30    22    30  ar
    31    22    32  ar
    32    23    33   1
    33    34    23   1
    34    28    24   1
    35    29    25   1
    36    29    26   1
    37    27    29   1
    38     1    35   1
    39     2    36   1
    40     3    37   1
    41     4    38   1
    42     5    39   1
    43     6    40   1
    44     7    41   1
    45     8    42   1
    46     9    43   1
    47    10    44   1
    48    11    45   1
    49    19    46   1
    50    19    47   1
    51    20    48   1
    52    23    49   1
    53    23    50   1
    54    24    51   1
    55    24    52   1
    56    25    53   1
    57    25    54   1
    58    26    55   1
    59    26    56   1
    60    27    57   1
    61    27    58   1
    62    28    59   1
    63    29    60   1
@<TRIPOS>SUBSTRUCTURE
     1  N44      1

