@<TRIPOS>MOLECULE
3zsx_ligand_023
    60    63
SMALL
GAST_HUCK
****
This file was generated by PARSER (from files_GN.cpp)

@<TRIPOS>ATOM
      1 C1         -8.3181   41.4388   -0.6093 C.ar        1 N44      -0.0687
      2 C2        -12.6435   47.1817    1.4430 C.ar        1 N44      -0.0630
      3 C3         -9.4560   40.6847   -0.9386 C.ar        1 N44      -0.0685
      4 C4         -8.2196   42.7772   -1.0254 C.ar        1 N44      -0.0685
      5 C5        -13.7062   47.9539    0.9515 C.ar        1 N44      -0.0640
      6 C6        -12.2878   45.9914    0.7925 C.ar        1 N44      -0.0483
      7 C7        -10.5044   41.2717   -1.6713 C.ar        1 N44      -0.0584
      8 C8         -9.2700   43.3700   -1.7481 C.ar        1 N44      -0.0584
      9 C9        -14.4202   47.5343   -0.1938 C.ar        1 N44      -0.0493
     10 C10       -18.4367   45.3249   -4.8476 C.ar        1 N44      -0.0712
     11 C11       -19.5871   45.6787   -5.5760 C.ar        1 N44      -0.0449
     12 C12       -13.0008   45.5553   -0.3548 C.ar        1 N44       0.0564
     13 C13       -19.6295   45.6779   -2.7300 C.ar        1 N44       0.0376
     14 C14       -10.4295   42.6267   -2.0792 C.ar        1 N44      -0.0211
     15 C15       -14.0957   46.3286   -0.8689 C.ar        1 N44       0.0219
     16 C16       -18.4188   45.3418   -3.4183 C.ar        1 N44      -0.0032
     17 C17       -20.7456   46.0344   -4.8742 C.ar        1 N44       0.1200
     18 C18       -20.7747   46.0170   -3.4936 C.ar        1 N44       0.1327
     19 C19       -15.7325   46.8943   -5.1691 C.2         1 N44      -0.1125
     20 C20       -16.3655   47.7666   -4.3743 C.2         1 N44      -0.0447
     21 C21       -12.5493   44.3822   -0.9287 C.2         1 N44       0.2021
     22 C22       -19.7276   45.7031   -1.3150 C.2         1 N44       0.0515
     23 C23       -22.7218   46.6433   -4.2554 C.3         1 N44       0.1864
     24 C24       -11.5290   43.2630   -2.8553 C.3         1 N44       0.0638
     25 C25       -14.7942   46.0051   -2.1638 C.3         1 N44       0.0086
     26 C26       -17.0996   45.0960   -2.7290 C.3         1 N44       0.0003
     27 C27       -16.6094   47.5967   -2.9449 C.3         1 N44      -0.0011
     28 N28       -12.0663   44.3944   -2.1630 N.am        1 N44      -0.2760
     29 N29       -16.2869   46.2861   -2.2562 N.4         1 N44       0.2715
     30 O30       -20.3969   46.6907   -0.6810 O.co2       1 N44      -0.5668
     31 O31       -12.5749   43.3625   -0.2418 O.2         1 N44      -0.3884
     32 O32       -19.3996   44.6088   -0.5867 O.co2       1 N44      -0.5668
     33 O33       -21.9161   46.4092   -5.4224 O.3         1 N44      -0.2947
     34 O34       -22.0132   46.3310   -3.0433 O.3         1 N44      -0.2890
     35 H1         -7.5483   41.0046   -0.0905 H           1 N44       0.0559
     36 H2        -12.0951   47.5055    2.2494 H           1 N44       0.0572
     37 H3         -9.5187   39.7028   -0.6520 H           1 N44       0.0599
     38 H4         -7.3829   43.3234   -0.7985 H           1 N44       0.0599
     39 H5        -13.9496   48.8367    1.4204 H           1 N44       0.0635
     40 H6        -11.4831   45.4571    1.1545 H           1 N44       0.0651
     41 H7        -11.3248   40.7060   -1.9012 H           1 N44       0.0557
     42 H8         -9.1800   44.3447   -2.0479 H           1 N44       0.0557
     43 H9        -15.1637   48.1433   -0.5408 H           1 N44       0.0570
     44 H10       -17.6025   45.0784   -5.3772 H           1 N44       0.0445
     45 H11       -19.5720   45.6877   -6.5980 H           1 N44       0.0514
     46 H12       -15.6227   47.0971   -6.1437 H           1 N44       0.0292
     47 H13       -15.4022   46.0223   -4.8207 H           1 N44       0.0292
     48 H14       -16.6916   48.6004   -4.8038 H           1 N44       0.0725
     49 H15       -23.6215   46.0280   -4.3202 H           1 N44       0.0973
     50 H16       -23.0244   47.6927   -4.2287 H           1 N44       0.0973
     51 H17       -12.3268   42.5447   -3.0814 H           1 N44       0.0683
     52 H18       -11.1347   43.6123   -3.8125 H           1 N44       0.0683
     53 H19       -14.6051   44.9557   -2.4008 H           1 N44       0.0995
     54 H20       -14.2534   46.5480   -2.9471 H           1 N44       0.0995
     55 H21       -16.4716   44.4932   -3.4004 H           1 N44       0.0966
     56 H22       -17.2849   44.4503   -1.8674 H           1 N44       0.0966
     57 H23       -17.6735   47.7789   -2.7805 H           1 N44       0.0998
     58 H24       -16.1103   48.4210   -2.4363 H           1 N44       0.0998
     59 H25       -12.0814   45.2437   -2.6461 H           1 N44       0.1869
     60 H26       -16.5800   46.4370   -1.2899 H           1 N44       0.2082
@<TRIPOS>BOND
     1     3     1  ar
     2     4     1  ar
     3     5     2  ar
     4     6     2  ar
     5     7     3  ar
     6     8     4  ar
     7     9     5  ar
     8    12     6  ar
     9    14     7  ar
    10    14     8  ar
    11    15     9  ar
    12    10    11  ar
    13    16    10  ar
    14    11    17  ar
    15    15    12  ar
    16    12    21   1
    17    16    13  ar
    18    13    18  ar
    19    13    22   1
    20    24    14   1
    21    25    15   1
    22    26    16   1
    23    18    17  ar
    24    17    33   1
    25    18    34   1
    26    20    19   2
    27    27    20   1
    28    21    28  am
    29    21    31   2
    30    22    30  ar
    31    22    32  ar
    32    23    33   1
    33    34    23   1
    34    28    24   1
    35    29    25   1
    36    29    26   1
    37    27    29   1
    38     1    35   1
    39     2    36   1
    40     3    37   1
    41     4    38   1
    42     5    39   1
    43     6    40   1
    44     7    41   1
    45     8    42   1
    46     9    43   1
    47    10    44   1
    48    11    45   1
    49    19    46   1
    50    19    47   1
    51    20    48   1
    52    23    49   1
    53    23    50   1
    54    24    51   1
    55    24    52   1
    56    25    53   1
    57    25    54   1
    58    26    55   1
    59    26    56   1
    60    27    57   1
    61    27    58   1
    62    28    59   1
    63    29    60   1
@<TRIPOS>SUBSTRUCTURE
     1  N44      1

