@<TRIPOS>MOLECULE
3zsx_ligand_044
    60    63
SMALL
GAST_HUCK
****
This file was generated by PARSER (from files_GN.cpp)

@<TRIPOS>ATOM
      1 C1        -20.4725   37.8147   -8.8085 C.ar        1 N44      -0.0687
      2 C2        -22.4975   44.7308   -9.9664 C.ar        1 N44      -0.0630
      3 C3        -19.9760   38.8885   -9.5688 C.ar        1 N44      -0.0685
      4 C4        -20.4913   37.8995   -7.4054 C.ar        1 N44      -0.0685
      5 C5        -22.6624   46.0077   -9.4156 C.ar        1 N44      -0.0640
      6 C6        -21.8279   43.7344   -9.2372 C.ar        1 N44      -0.0483
      7 C7        -19.4899   40.0420   -8.9242 C.ar        1 N44      -0.0584
      8 C8        -20.0072   39.0557   -6.7618 C.ar        1 N44      -0.0584
      9 C9        -22.1187   46.2986   -8.1554 C.ar        1 N44      -0.0493
     10 C10       -20.0650   45.9963   -2.7854 C.ar        1 N44      -0.0712
     11 C11       -20.7458   46.3384   -1.6034 C.ar        1 N44      -0.0449
     12 C12       -21.2983   44.0081   -7.9521 C.ar        1 N44       0.0564
     13 C13       -19.4610   48.3371   -3.1651 C.ar        1 N44       0.0376
     14 C14       -19.4977   40.1415   -7.5118 C.ar        1 N44      -0.0211
     15 C15       -21.3919   45.3337   -7.4184 C.ar        1 N44       0.0219
     16 C16       -19.4265   46.9734   -3.6009 C.ar        1 N44      -0.0032
     17 C17       -20.8080   47.6848   -1.2317 C.ar        1 N44       0.1200
     18 C18       -20.1831   48.6608   -1.9899 C.ar        1 N44       0.1327
     19 C19       -17.3988   48.4278   -7.4217 C.2         1 N44      -0.1125
     20 C20       -18.5378   48.7890   -6.8126 C.2         1 N44      -0.0447
     21 C21       -20.8136   42.9226   -7.2415 C.2         1 N44       0.2021
     22 C22       -18.7585   49.3790   -3.8079 C.2         1 N44       0.0515
     23 C23       -21.2851   49.5974   -0.3716 C.3         1 N44       0.1864
     24 C24       -18.9595   41.3586   -6.8427 C.3         1 N44       0.0638
     25 C25       -20.8142   45.7394   -6.0946 C.3         1 N44       0.0086
     26 C26       -18.7528   46.4917   -4.8598 C.3         1 N44       0.0003
     27 C27       -19.7133   47.9296   -6.7273 C.3         1 N44      -0.0011
     28 N28       -19.5374   42.5786   -7.3307 N.am        1 N44      -0.2760
     29 N29       -19.5369   46.5477   -6.1509 N.4         1 N44       0.2715
     30 O30       -19.2920   50.6194   -3.9154 O.co2       1 N44      -0.5668
     31 O31       -21.6353   42.2045   -6.6898 O.2         1 N44      -0.3884
     32 O32       -17.4253   49.2725   -4.0038 O.co2       1 N44      -0.5668
     33 O33       -21.3889   48.1845   -0.1252 O.3         1 N44      -0.2947
     34 O34       -20.3114   49.8683   -1.3958 O.3         1 N44      -0.2890
     35 H1        -20.8207   36.9750   -9.2759 H           1 N44       0.0559
     36 H2        -22.8806   44.5175  -10.8912 H           1 N44       0.0572
     37 H3        -19.9679   38.8307  -10.5895 H           1 N44       0.0599
     38 H4        -20.8546   37.1200   -6.8518 H           1 N44       0.0599
     39 H5        -23.1820   46.7235   -9.9303 H           1 N44       0.0635
     40 H6        -21.7640   42.7982   -9.6451 H           1 N44       0.0651
     41 H7        -19.1274   40.8106   -9.4928 H           1 N44       0.0557
     42 H8        -20.0279   39.0955   -5.7391 H           1 N44       0.0557
     43 H9        -22.2616   47.2387   -7.7766 H           1 N44       0.0570
     44 H10       -20.0346   45.0057   -3.0444 H           1 N44       0.0445
     45 H11       -21.1858   45.6179   -1.0257 H           1 N44       0.0514
     46 H12       -16.6410   49.0616   -7.4858 H           1 N44       0.0292
     47 H13       -17.2913   47.5261   -7.8137 H           1 N44       0.0292
     48 H14       -18.5965   49.7131   -6.4487 H           1 N44       0.0725
     49 H15       -21.0009   50.1103    0.5490 H           1 N44       0.0973
     50 H16       -22.2591   49.9787   -0.6922 H           1 N44       0.0973
     51 H17       -17.8858   41.3915   -7.0312 H           1 N44       0.0683
     52 H18       -19.0913   41.3119   -5.7603 H           1 N44       0.0683
     53 H19       -20.6374   44.8331   -5.5201 H           1 N44       0.0995
     54 H20       -21.5742   46.2917   -5.5299 H           1 N44       0.0995
     55 H21       -18.4590   45.4458   -4.7253 H           1 N44       0.0966
     56 H22       -17.7984   46.9985   -4.9801 H           1 N44       0.0966
     57 H23       -20.0600   47.8314   -7.7608 H           1 N44       0.0998
     58 H24       -20.4924   48.4589   -6.1682 H           1 N44       0.0998
     59 H25       -18.9279   43.1966   -7.7603 H           1 N44       0.1869
     60 H26       -18.9562   46.0642   -6.8381 H           1 N44       0.2082
@<TRIPOS>BOND
     1     3     1  ar
     2     4     1  ar
     3     5     2  ar
     4     6     2  ar
     5     7     3  ar
     6     8     4  ar
     7     9     5  ar
     8    12     6  ar
     9    14     7  ar
    10    14     8  ar
    11    15     9  ar
    12    10    11  ar
    13    16    10  ar
    14    11    17  ar
    15    15    12  ar
    16    12    21   1
    17    16    13  ar
    18    13    18  ar
    19    13    22   1
    20    24    14   1
    21    25    15   1
    22    26    16   1
    23    18    17  ar
    24    17    33   1
    25    18    34   1
    26    20    19   2
    27    27    20   1
    28    21    28  am
    29    21    31   2
    30    22    30  ar
    31    22    32  ar
    32    23    33   1
    33    34    23   1
    34    28    24   1
    35    29    25   1
    36    29    26   1
    37    27    29   1
    38     1    35   1
    39     2    36   1
    40     3    37   1
    41     4    38   1
    42     5    39   1
    43     6    40   1
    44     7    41   1
    45     8    42   1
    46     9    43   1
    47    10    44   1
    48    11    45   1
    49    19    46   1
    50    19    47   1
    51    20    48   1
    52    23    49   1
    53    23    50   1
    54    24    51   1
    55    24    52   1
    56    25    53   1
    57    25    54   1
    58    26    55   1
    59    26    56   1
    60    27    57   1
    61    27    58   1
    62    28    59   1
    63    29    60   1
@<TRIPOS>SUBSTRUCTURE
     1  N44      1

