@<TRIPOS>MOLECULE
3zsx_ligand_031
    60    63
SMALL
GAST_HUCK
****
This file was generated by PARSER (from files_GN.cpp)

@<TRIPOS>ATOM
      1 C1        -23.5433   43.6326   -2.9939 C.ar        1 N44      -0.0687
      2 C2        -16.7678   45.6064   -4.9624 C.ar        1 N44      -0.0630
      3 C3        -22.8939   44.8169   -3.3843 C.ar        1 N44      -0.0685
      4 C4        -23.1254   42.9534   -1.8356 C.ar        1 N44      -0.0685
      5 C5        -15.4146   45.9124   -4.7855 C.ar        1 N44      -0.0640
      6 C6        -17.5791   45.3769   -3.8426 C.ar        1 N44      -0.0483
      7 C7        -21.8326   45.3238   -2.6116 C.ar        1 N44      -0.0584
      8 C8        -22.0502   43.4494   -1.0742 C.ar        1 N44      -0.0584
      9 C9        -14.8851   46.0246   -3.4919 C.ar        1 N44      -0.0493
     10 C10       -11.6463   45.2484   -2.7573 C.ar        1 N44      -0.0712
     11 C11       -11.2549   43.9686   -3.1861 C.ar        1 N44      -0.0449
     12 C12       -17.0458   45.4313   -2.5204 C.ar        1 N44       0.0564
     13 C13       -11.8356   44.4459   -0.4495 C.ar        1 N44       0.0376
     14 C14       -21.3797   44.6386   -1.4576 C.ar        1 N44      -0.0211
     15 C15       -15.6720   45.7932   -2.3364 C.ar        1 N44       0.0219
     16 C16       -12.0171   45.4920   -1.4050 C.ar        1 N44      -0.0032
     17 C17       -11.1265   42.9477   -2.2376 C.ar        1 N44       0.1200
     18 C18       -11.3846   43.1880   -0.8968 C.ar        1 N44       0.1327
     19 C19       -13.7017   50.2301   -0.6326 C.2         1 N44      -0.1125
     20 C20       -13.5876   49.2580    0.2816 C.2         1 N44      -0.0447
     21 C21       -17.9060   45.0765   -1.4816 C.2         1 N44       0.2021
     22 C22       -12.0197   44.6112    0.9328 C.2         1 N44       0.0515
     23 C23       -10.8817   41.1001   -1.1658 C.3         1 N44       0.1864
     24 C24       -20.2539   45.1802   -0.6444 C.3         1 N44       0.0638
     25 C25       -14.9918   45.9171   -0.9998 C.3         1 N44       0.0086
     26 C26       -12.5386   46.8410   -1.0173 C.3         1 N44       0.0003
     27 C27       -14.3629   48.0241    0.2574 C.3         1 N44      -0.0011
     28 N28       -19.1472   45.5470   -1.4749 N.am        1 N44      -0.2760
     29 N29       -14.0321   47.0936   -0.8805 N.4         1 N44       0.2715
     30 O30       -13.2627   44.6693    1.4591 O.co2       1 N44      -0.5668
     31 O31       -17.5474   44.2649   -0.6387 O.2         1 N44      -0.3884
     32 O32       -10.9991   45.0989    1.6736 O.co2       1 N44      -0.5668
     33 O33       -10.7056   41.6925   -2.4628 O.3         1 N44      -0.2947
     34 O34       -11.1312   42.0908   -0.1546 O.3         1 N44      -0.2890
     35 H1        -24.3174   43.2661   -3.5507 H           1 N44       0.0559
     36 H2        -17.1621   45.5607   -5.9073 H           1 N44       0.0572
     37 H3        -23.1945   45.3090   -4.2260 H           1 N44       0.0599
     38 H4        -23.6042   42.0983   -1.5436 H           1 N44       0.0599
     39 H5        -14.8173   46.0716   -5.5968 H           1 N44       0.0635
     40 H6        -18.5628   45.1349   -4.0129 H           1 N44       0.0651
     41 H7        -21.3851   46.1956   -2.9069 H           1 N44       0.0557
     42 H8        -21.7661   42.9434   -0.2323 H           1 N44       0.0557
     43 H9        -13.9116   46.3031   -3.4064 H           1 N44       0.0570
     44 H10       -11.6746   45.9969   -3.4488 H           1 N44       0.0445
     45 H11       -11.0595   43.7806   -4.1687 H           1 N44       0.0514
     46 H12       -13.1080   51.0269   -0.5911 H           1 N44       0.0292
     47 H13       -14.3641   50.1726   -1.3690 H           1 N44       0.0292
     48 H14       -12.9170   49.3790    1.0040 H           1 N44       0.0725
     49 H15        -9.9864   40.5356   -0.9030 H           1 N44       0.0973
     50 H16       -11.7308   40.4148   -1.2092 H           1 N44       0.0973
     51 H17       -19.9517   44.4685    0.1305 H           1 N44       0.0683
     52 H18       -20.6041   46.0852   -0.1407 H           1 N44       0.0683
     53 H19       -14.4924   44.9640   -0.8307 H           1 N44       0.0995
     54 H20       -15.7450   45.9715   -0.2108 H           1 N44       0.0995
     55 H21       -12.1962   47.5701   -1.7541 H           1 N44       0.0966
     56 H22       -12.0069   47.1218   -0.1057 H           1 N44       0.0966
     57 H23       -15.4167   48.3033    0.2046 H           1 N44       0.0998
     58 H24       -14.2174   47.4935    1.2032 H           1 N44       0.0998
     59 H25       -19.3495   46.2152   -2.1487 H           1 N44       0.1869
     60 H26       -14.2627   47.6569   -1.6994 H           1 N44       0.2082
@<TRIPOS>BOND
     1     3     1  ar
     2     4     1  ar
     3     5     2  ar
     4     6     2  ar
     5     7     3  ar
     6     8     4  ar
     7     9     5  ar
     8    12     6  ar
     9    14     7  ar
    10    14     8  ar
    11    15     9  ar
    12    10    11  ar
    13    16    10  ar
    14    11    17  ar
    15    15    12  ar
    16    12    21   1
    17    16    13  ar
    18    13    18  ar
    19    13    22   1
    20    24    14   1
    21    25    15   1
    22    26    16   1
    23    18    17  ar
    24    17    33   1
    25    18    34   1
    26    20    19   2
    27    27    20   1
    28    21    28  am
    29    21    31   2
    30    22    30  ar
    31    22    32  ar
    32    23    33   1
    33    34    23   1
    34    28    24   1
    35    29    25   1
    36    29    26   1
    37    27    29   1
    38     1    35   1
    39     2    36   1
    40     3    37   1
    41     4    38   1
    42     5    39   1
    43     6    40   1
    44     7    41   1
    45     8    42   1
    46     9    43   1
    47    10    44   1
    48    11    45   1
    49    19    46   1
    50    19    47   1
    51    20    48   1
    52    23    49   1
    53    23    50   1
    54    24    51   1
    55    24    52   1
    56    25    53   1
    57    25    54   1
    58    26    55   1
    59    26    56   1
    60    27    57   1
    61    27    58   1
    62    28    59   1
    63    29    60   1
@<TRIPOS>SUBSTRUCTURE
     1  N44      1

