@<TRIPOS>MOLECULE
3zsx_ligand_091
    60    63
SMALL
GAST_HUCK
****
This file was generated by PARSER (from files_GN.cpp)

@<TRIPOS>ATOM
      1 C1        -17.1508   44.1286   -5.4084 C.ar        1 N44      -0.0687
      2 C2        -14.8749   49.9340   -0.5473 C.ar        1 N44      -0.0630
      3 C3        -16.8677   43.2057   -4.3865 C.ar        1 N44      -0.0685
      4 C4        -16.3466   45.2707   -5.5628 C.ar        1 N44      -0.0685
      5 C5        -13.6628   50.6344   -0.4838 C.ar        1 N44      -0.0640
      6 C6        -14.8702   48.5373   -0.6640 C.ar        1 N44      -0.0483
      7 C7        -15.7935   43.4337   -3.5060 C.ar        1 N44      -0.0584
      8 C8        -15.2573   45.4841   -4.6975 C.ar        1 N44      -0.0584
      9 C9        -12.4432   49.9290   -0.4863 C.ar        1 N44      -0.0493
     10 C10        -8.2332   45.4408   -0.7309 C.ar        1 N44      -0.0712
     11 C11        -8.2638   44.0771   -1.0872 C.ar        1 N44      -0.0449
     12 C12       -13.6553   47.8136   -0.6947 C.ar        1 N44       0.0564
     13 C13        -9.6185   44.9904    1.2406 C.ar        1 N44       0.0376
     14 C14       -14.9633   44.5708   -3.6548 C.ar        1 N44      -0.0211
     15 C15       -12.4149   48.5140   -0.5762 C.ar        1 N44       0.0219
     16 C16        -8.9222   45.9290    0.4154 C.ar        1 N44      -0.0032
     17 C17        -8.9928   43.1862   -0.2861 C.ar        1 N44       0.1200
     18 C18        -9.6618   43.6329    0.8443 C.ar        1 N44       0.1327
     19 C19       -11.2428   50.5000    2.4869 C.2         1 N44      -0.1125
     20 C20       -11.7583   49.2703    2.2706 C.2         1 N44      -0.0447
     21 C21       -13.7372   46.4620   -0.9545 C.2         1 N44       0.2021
     22 C22       -10.2965   45.3702    2.4163 C.2         1 N44       0.0515
     23 C23       -10.1189   41.5321    0.5156 C.3         1 N44       0.1864
     24 C24       -13.7827   44.7827   -2.7747 C.3         1 N44       0.0638
     25 C25       -11.0816   47.8369   -0.5304 C.3         1 N44       0.0086
     26 C26        -8.9114   47.4214    0.6545 C.3         1 N44       0.0003
     27 C27       -10.9444   48.0930    2.0057 C.3         1 N44      -0.0011
     28 N28       -13.7844   46.1052   -2.2298 N.am        1 N44      -0.2760
     29 N29       -10.2319   48.1503    0.6777 N.4         1 N44       0.2715
     30 O30       -11.5459   44.8988    2.6871 O.co2       1 N44      -0.5668
     31 O31       -13.7194   45.6546   -0.0329 O.2         1 N44      -0.3884
     32 O32        -9.6067   45.9499    3.4200 O.co2       1 N44      -0.5668
     33 O33        -9.1378   41.8618   -0.4861 O.3         1 N44      -0.2947
     34 O34       -10.2757   42.6008    1.4692 O.3         1 N44      -0.2890
     35 H1        -17.9382   43.9662   -6.0420 H           1 N44       0.0559
     36 H2        -15.7596   50.4444   -0.5357 H           1 N44       0.0572
     37 H3        -17.4369   42.3633   -4.2892 H           1 N44       0.0599
     38 H4        -16.5478   45.9439   -6.3064 H           1 N44       0.0599
     39 H5        -13.6606   51.6558   -0.4220 H           1 N44       0.0635
     40 H6        -15.7645   48.0534   -0.7620 H           1 N44       0.0651
     41 H7        -15.6131   42.7532   -2.7647 H           1 N44       0.0557
     42 H8        -14.6771   46.3137   -4.8331 H           1 N44       0.0557
     43 H9        -11.5681   50.4663   -0.4608 H           1 N44       0.0570
     44 H10        -7.7254   46.0771   -1.3508 H           1 N44       0.0445
     45 H11        -7.7834   43.7395   -1.9256 H           1 N44       0.0514
     46 H12       -11.8446   51.2723    2.6825 H           1 N44       0.0292
     47 H13       -10.2587   50.6569    2.4372 H           1 N44       0.0292
     48 H14       -12.7484   49.1624    2.3519 H           1 N44       0.0725
     49 H15        -9.8123   40.6208    1.0351 H           1 N44       0.0973
     50 H16       -11.0804   41.3408    0.0271 H           1 N44       0.0973
     51 H17       -12.8811   44.6736   -3.3857 H           1 N44       0.0683
     52 H18       -13.7322   44.0243   -1.9893 H           1 N44       0.0683
     53 H19       -10.5360   48.1303   -1.4343 H           1 N44       0.0995
     54 H20       -11.2070   46.7545   -0.5944 H           1 N44       0.0995
     55 H21        -8.3237   47.9127   -0.1251 H           1 N44       0.0966
     56 H22        -8.3439   47.6197    1.5644 H           1 N44       0.0966
     57 H23       -11.5606   47.1852    2.0562 H           1 N44       0.0998
     58 H24       -10.2248   48.0467    2.8345 H           1 N44       0.0998
     59 H25       -13.7822   46.8272   -2.8746 H           1 N44       0.1869
     60 H26        -9.9737   49.1337    0.5598 H           1 N44       0.2082
@<TRIPOS>BOND
     1     3     1  ar
     2     4     1  ar
     3     5     2  ar
     4     6     2  ar
     5     7     3  ar
     6     8     4  ar
     7     9     5  ar
     8    12     6  ar
     9    14     7  ar
    10    14     8  ar
    11    15     9  ar
    12    10    11  ar
    13    16    10  ar
    14    11    17  ar
    15    15    12  ar
    16    12    21   1
    17    16    13  ar
    18    13    18  ar
    19    13    22   1
    20    24    14   1
    21    25    15   1
    22    26    16   1
    23    18    17  ar
    24    17    33   1
    25    18    34   1
    26    20    19   2
    27    27    20   1
    28    21    28  am
    29    21    31   2
    30    22    30  ar
    31    22    32  ar
    32    23    33   1
    33    34    23   1
    34    28    24   1
    35    29    25   1
    36    29    26   1
    37    27    29   1
    38     1    35   1
    39     2    36   1
    40     3    37   1
    41     4    38   1
    42     5    39   1
    43     6    40   1
    44     7    41   1
    45     8    42   1
    46     9    43   1
    47    10    44   1
    48    11    45   1
    49    19    46   1
    50    19    47   1
    51    20    48   1
    52    23    49   1
    53    23    50   1
    54    24    51   1
    55    24    52   1
    56    25    53   1
    57    25    54   1
    58    26    55   1
    59    26    56   1
    60    27    57   1
    61    27    58   1
    62    28    59   1
    63    29    60   1
@<TRIPOS>SUBSTRUCTURE
     1  N44      1

