@<TRIPOS>MOLECULE
3zsx_ligand_063
    60    63
SMALL
GAST_HUCK
****
This file was generated by PARSER (from files_GN.cpp)

@<TRIPOS>ATOM
      1 C1        -17.4963   51.7673    0.2357 C.ar        1 N44      -0.0687
      2 C2        -20.8435   45.8778   -6.0467 C.ar        1 N44      -0.0630
      3 C3        -16.2203   51.5259   -0.3018 C.ar        1 N44      -0.0685
      4 C4        -18.6433   51.4127   -0.4974 C.ar        1 N44      -0.0685
      5 C5        -21.1923   45.0790   -4.9507 C.ar        1 N44      -0.0640
      6 C6        -20.1411   47.0726   -5.8382 C.ar        1 N44      -0.0483
      7 C7        -16.0874   50.9145   -1.5627 C.ar        1 N44      -0.0584
      8 C8        -18.5087   50.8296   -1.7699 C.ar        1 N44      -0.0584
      9 C9        -20.8781   45.5007   -3.6469 C.ar        1 N44      -0.0493
     10 C10       -22.3998   48.1645    1.5108 C.ar        1 N44      -0.0712
     11 C11       -22.3739   48.4782    2.8786 C.ar        1 N44      -0.0449
     12 C12       -19.7970   47.5116   -4.5323 C.ar        1 N44       0.0564
     13 C13       -21.6819   45.8683    1.9729 C.ar        1 N44       0.0376
     14 C14       -17.2322   50.5546   -2.3151 C.ar        1 N44      -0.0211
     15 C15       -20.2146   46.7297   -3.4039 C.ar        1 N44       0.0219
     16 C16       -22.0467   46.8780    1.0205 C.ar        1 N44      -0.0032
     17 C17       -21.9940   47.4855    3.7852 C.ar        1 N44       0.1200
     18 C18       -21.6484   46.2169    3.3483 C.ar        1 N44       0.1327
     19 C19       -24.4027   48.3058   -2.8715 C.2         1 N44      -0.1125
     20 C20       -23.0724   48.1865   -3.0155 C.2         1 N44      -0.0447
     21 C21       -19.0954   48.7133   -4.4436 C.2         1 N44       0.2021
     22 C22       -21.4160   44.5214    1.6309 C.2         1 N44       0.0515
     23 C23       -21.3990   46.3435    5.5112 C.3         1 N44       0.1864
     24 C24       -17.1123   49.9741   -3.6800 C.3         1 N44       0.0638
     25 C25       -20.0758   47.1625   -1.9724 C.3         1 N44       0.0086
     26 C26       -22.1116   46.6749   -0.4688 C.3         1 N44       0.0003
     27 C27       -22.1032   48.6957   -2.0564 C.3         1 N44      -0.0011
     28 N28       -17.9149   48.7907   -3.8328 N.am        1 N44      -0.2760
     29 N29       -21.3082   47.6819   -1.2685 N.4         1 N44       0.2715
     30 O30       -20.6327   43.7331    2.4030 O.co2       1 N44      -0.5668
     31 O31       -19.5813   49.6972   -4.9883 O.2         1 N44      -0.3884
     32 O32       -22.2254   43.8730    0.7643 O.co2       1 N44      -0.5668
     33 O33       -21.9694   47.6029    5.1237 O.3         1 N44      -0.2947
     34 O34       -21.3724   45.4215    4.4073 O.3         1 N44      -0.2890
     35 H1        -17.5937   52.2098    1.1522 H           1 N44       0.0559
     36 H2        -21.1024   45.5891   -6.9947 H           1 N44       0.0572
     37 H3        -15.3873   51.8039    0.2229 H           1 N44       0.0599
     38 H4        -19.5724   51.5917   -0.1120 H           1 N44       0.0599
     39 H5        -21.6898   44.2000   -5.1016 H           1 N44       0.0635
     40 H6        -19.8832   47.6227   -6.6632 H           1 N44       0.0651
     41 H7        -15.1494   50.7605   -1.9412 H           1 N44       0.0557
     42 H8        -19.3539   50.6109   -2.3003 H           1 N44       0.0557
     43 H9        -21.1394   44.8918   -2.8718 H           1 N44       0.0570
     44 H10       -22.6975   48.8995    0.8738 H           1 N44       0.0445
     45 H11       -22.6433   49.4066    3.2106 H           1 N44       0.0514
     46 H12       -25.0179   47.9610   -3.5668 H           1 N44       0.0292
     47 H13       -24.7981   48.7284   -2.0637 H           1 N44       0.0292
     48 H14       -22.7279   47.7504   -3.8384 H           1 N44       0.0725
     49 H15       -21.9765   45.9176    6.3342 H           1 N44       0.0973
     50 H16       -20.3786   46.5116    5.8658 H           1 N44       0.0973
     51 H17       -16.0794   49.6989   -3.9048 H           1 N44       0.0683
     52 H18       -17.3886   50.7502   -4.3983 H           1 N44       0.0683
     53 H19       -19.3458   47.9597   -1.8942 H           1 N44       0.0995
     54 H20       -19.6316   46.3470   -1.3946 H           1 N44       0.0995
     55 H21       -23.1687   46.7238   -0.7303 H           1 N44       0.0966
     56 H22       -21.8000   45.6700   -0.7300 H           1 N44       0.0966
     57 H23       -22.6044   49.3517   -1.3437 H           1 N44       0.0998
     58 H24       -21.4286   49.3570   -2.6022 H           1 N44       0.0998
     59 H25       -17.5689   47.9774   -3.4300 H           1 N44       0.1869
     60 H26       -20.8910   48.2600   -0.5372 H           1 N44       0.2082
@<TRIPOS>BOND
     1     3     1  ar
     2     4     1  ar
     3     5     2  ar
     4     6     2  ar
     5     7     3  ar
     6     8     4  ar
     7     9     5  ar
     8    12     6  ar
     9    14     7  ar
    10    14     8  ar
    11    15     9  ar
    12    10    11  ar
    13    16    10  ar
    14    11    17  ar
    15    15    12  ar
    16    12    21   1
    17    16    13  ar
    18    13    18  ar
    19    13    22   1
    20    24    14   1
    21    25    15   1
    22    26    16   1
    23    18    17  ar
    24    17    33   1
    25    18    34   1
    26    20    19   2
    27    27    20   1
    28    21    28  am
    29    21    31   2
    30    22    30  ar
    31    22    32  ar
    32    23    33   1
    33    34    23   1
    34    28    24   1
    35    29    25   1
    36    29    26   1
    37    27    29   1
    38     1    35   1
    39     2    36   1
    40     3    37   1
    41     4    38   1
    42     5    39   1
    43     6    40   1
    44     7    41   1
    45     8    42   1
    46     9    43   1
    47    10    44   1
    48    11    45   1
    49    19    46   1
    50    19    47   1
    51    20    48   1
    52    23    49   1
    53    23    50   1
    54    24    51   1
    55    24    52   1
    56    25    53   1
    57    25    54   1
    58    26    55   1
    59    26    56   1
    60    27    57   1
    61    27    58   1
    62    28    59   1
    63    29    60   1
@<TRIPOS>SUBSTRUCTURE
     1  N44      1

