@<TRIPOS>MOLECULE
3zsx_ligand_018
    60    63
SMALL
GAST_HUCK
****
This file was generated by PARSER (from files_GN.cpp)

@<TRIPOS>ATOM
      1 C1        -12.9239   53.1942   -5.4366 C.ar        1 N44      -0.0687
      2 C2        -19.8742   48.3827   -4.2633 C.ar        1 N44      -0.0630
      3 C3        -14.2314   52.9363   -4.9923 C.ar        1 N44      -0.0685
      4 C4        -12.2890   52.2883   -6.3042 C.ar        1 N44      -0.0685
      5 C5        -19.8317   47.7960   -2.9936 C.ar        1 N44      -0.0640
      6 C6        -18.7065   48.4497   -5.0409 C.ar        1 N44      -0.0483
      7 C7        -14.8964   51.7655   -5.4018 C.ar        1 N44      -0.0584
      8 C8        -12.9569   51.1213   -6.7165 C.ar        1 N44      -0.0584
      9 C9        -18.6274   47.2649   -2.5120 C.ar        1 N44      -0.0493
     10 C10       -13.1833   45.2534   -2.3785 C.ar        1 N44      -0.0712
     11 C11       -11.9892   45.9520   -2.6259 C.ar        1 N44      -0.0449
     12 C12       -17.4722   47.9183   -4.5759 C.ar        1 N44       0.0564
     13 C13       -13.3813   46.3017   -0.1665 C.ar        1 N44       0.0376
     14 C14       -14.2672   50.8301   -6.2631 C.ar        1 N44      -0.0211
     15 C15       -17.4368   47.2999   -3.2819 C.ar        1 N44       0.0219
     16 C16       -13.9430   45.4757   -1.1986 C.ar        1 N44      -0.0032
     17 C17       -11.5296   46.8632   -1.6704 C.ar        1 N44       0.1200
     18 C18       -12.1859   47.0090   -0.4577 C.ar        1 N44       0.1327
     19 C19       -17.4366   44.2986   -5.5887 C.2         1 N44      -0.1125
     20 C20       -17.5379   44.4451   -4.2619 C.2         1 N44      -0.0447
     21 C21       -16.3535   48.0486   -5.4036 C.2         1 N44       0.2021
     22 C22       -13.9281   46.4009    1.1378 C.2         1 N44       0.0515
     23 C23       -10.2963   48.0908   -0.4038 C.3         1 N44       0.1864
     24 C24       -14.9357   49.5841   -6.7450 C.3         1 N44       0.0638
     25 C25       -16.2155   46.7228   -2.6301 C.3         1 N44       0.0086
     26 C26       -15.3272   44.8813   -1.1523 C.3         1 N44       0.0003
     27 C27       -16.4319   44.2590   -3.3376 C.3         1 N44      -0.0011
     28 N28       -16.0980   49.2137   -5.9950 N.am        1 N44      -0.2760
     29 N29       -16.3236   45.2729   -2.2274 N.4         1 N44       0.2715
     30 O30       -14.4392   45.3109    1.7527 O.co2       1 N44      -0.5668
     31 O31       -15.6322   47.0791   -5.6064 O.2         1 N44      -0.3884
     32 O32       -13.6665   47.4578    1.9417 O.co2       1 N44      -0.5668
     33 O33       -10.4281   47.6362   -1.7599 O.3         1 N44      -0.2947
     34 O34       -11.5078   47.8644    0.3390 O.3         1 N44      -0.2890
     35 H1        -12.4391   54.0437   -5.1363 H           1 N44       0.0559
     36 H2        -20.7507   48.7757   -4.6168 H           1 N44       0.0572
     37 H3        -14.7010   53.6025   -4.3731 H           1 N44       0.0599
     38 H4        -11.3400   52.4796   -6.6335 H           1 N44       0.0599
     39 H5        -20.6773   47.7592   -2.4180 H           1 N44       0.0635
     40 H6        -18.7754   48.8921   -5.9624 H           1 N44       0.0651
     41 H7        -15.8505   51.6168   -5.0684 H           1 N44       0.0557
     42 H8        -12.4746   50.4765   -7.3484 H           1 N44       0.0557
     43 H9        -18.6289   46.8528   -1.5765 H           1 N44       0.0570
     44 H10       -13.5020   44.5937   -3.0894 H           1 N44       0.0445
     45 H11       -11.4779   45.8144   -3.5008 H           1 N44       0.0514
     46 H12       -18.2379   44.4086   -6.1623 H           1 N44       0.0292
     47 H13       -16.5819   44.0360   -6.0163 H           1 N44       0.0292
     48 H14       -18.4354   44.6389   -3.8826 H           1 N44       0.0725
     49 H15       -10.0558   49.1563   -0.3952 H           1 N44       0.0973
     50 H16        -9.4755   47.5461    0.0721 H           1 N44       0.0973
     51 H17       -14.2015   48.7726   -6.7495 H           1 N44       0.0683
     52 H18       -15.2492   49.7490   -7.7776 H           1 N44       0.0683
     53 H19       -16.0479   47.3286   -1.7334 H           1 N44       0.0995
     54 H20       -15.3216   46.8517   -3.2352 H           1 N44       0.0995
     55 H21       -15.8301   45.1556   -0.2270 H           1 N44       0.0966
     56 H22       -15.2115   43.7939   -1.1008 H           1 N44       0.0966
     57 H23       -15.4864   44.1954   -3.8820 H           1 N44       0.0998
     58 H24       -16.6210   43.2798   -2.8868 H           1 N44       0.0998
     59 H25       -16.7610   49.9115   -5.8738 H           1 N44       0.1869
     60 H26       -17.2286   45.2106   -1.7536 H           1 N44       0.2082
@<TRIPOS>BOND
     1     3     1  ar
     2     4     1  ar
     3     5     2  ar
     4     6     2  ar
     5     7     3  ar
     6     8     4  ar
     7     9     5  ar
     8    12     6  ar
     9    14     7  ar
    10    14     8  ar
    11    15     9  ar
    12    10    11  ar
    13    16    10  ar
    14    11    17  ar
    15    15    12  ar
    16    12    21   1
    17    16    13  ar
    18    13    18  ar
    19    13    22   1
    20    24    14   1
    21    25    15   1
    22    26    16   1
    23    18    17  ar
    24    17    33   1
    25    18    34   1
    26    20    19   2
    27    27    20   1
    28    21    28  am
    29    21    31   2
    30    22    30  ar
    31    22    32  ar
    32    23    33   1
    33    34    23   1
    34    28    24   1
    35    29    25   1
    36    29    26   1
    37    27    29   1
    38     1    35   1
    39     2    36   1
    40     3    37   1
    41     4    38   1
    42     5    39   1
    43     6    40   1
    44     7    41   1
    45     8    42   1
    46     9    43   1
    47    10    44   1
    48    11    45   1
    49    19    46   1
    50    19    47   1
    51    20    48   1
    52    23    49   1
    53    23    50   1
    54    24    51   1
    55    24    52   1
    56    25    53   1
    57    25    54   1
    58    26    55   1
    59    26    56   1
    60    27    57   1
    61    27    58   1
    62    28    59   1
    63    29    60   1
@<TRIPOS>SUBSTRUCTURE
     1  N44      1

