@<TRIPOS>MOLECULE
3zsx_ligand_006
    60    63
SMALL
GAST_HUCK
****
This file was generated by PARSER (from files_GN.cpp)

@<TRIPOS>ATOM
      1 C1        -24.1730   43.0928  -13.3180 C.ar        1 N44      -0.0687
      2 C2        -18.3378   40.1173   -7.0541 C.ar        1 N44      -0.0630
      3 C3        -25.0728   42.0700  -12.9642 C.ar        1 N44      -0.0685
      4 C4        -22.9338   43.1892  -12.6654 C.ar        1 N44      -0.0685
      5 C5        -18.0524   41.3778   -6.5192 C.ar        1 N44      -0.0640
      6 C6        -19.5710   39.8837   -7.6878 C.ar        1 N44      -0.0483
      7 C7        -24.7257   41.1398  -11.9674 C.ar        1 N44      -0.0584
      8 C8        -22.5805   42.2464  -11.6817 C.ar        1 N44      -0.0584
      9 C9        -19.0030   42.4054   -6.6126 C.ar        1 N44      -0.0493
     10 C10       -19.3411   46.3648   -5.3807 C.ar        1 N44      -0.0712
     11 C11       -18.6601   46.3884   -4.1511 C.ar        1 N44      -0.0449
     12 C12       -20.5606   40.8956   -7.7516 C.ar        1 N44       0.0564
     13 C13       -21.3353   45.4334   -4.2893 C.ar        1 N44       0.0376
     14 C14       -23.4684   41.2001  -11.3207 C.ar        1 N44      -0.0211
     15 C15       -20.2744   42.1806   -7.1966 C.ar        1 N44       0.0219
     16 C16       -20.6790   45.8964   -5.4742 C.ar        1 N44      -0.0032
     17 C17       -19.3163   45.9272   -3.0023 C.ar        1 N44       0.1200
     18 C18       -20.6174   45.4539   -3.0716 C.ar        1 N44       0.1327
     19 C19       -22.9983   45.8795   -9.8053 C.2         1 N44      -0.1125
     20 C20       -22.2552   44.7737   -9.6267 C.2         1 N44      -0.0447
     21 C21       -21.7857   40.5646   -8.3065 C.2         1 N44       0.2021
     22 C22       -22.6342   44.8707   -4.2625 C.2         1 N44       0.0515
     23 C23       -19.9006   45.2502   -1.0377 C.3         1 N44       0.1864
     24 C24       -23.0896   40.1255  -10.3606 C.3         1 N44       0.0638
     25 C25       -21.2592   43.2990   -7.1022 C.3         1 N44       0.0086
     26 C26       -21.2788   45.8060   -6.8429 C.3         1 N44       0.0003
     27 C27       -20.8945   44.7860   -9.1015 C.3         1 N44      -0.0011
     28 N28       -21.8987   40.4139   -9.6206 N.am        1 N44      -0.2760
     29 N29       -20.7514   44.6265   -7.6114 N.4         1 N44       0.2715
     30 O30       -23.7474   45.6242   -4.4475 O.co2       1 N44      -0.5668
     31 O31       -22.7393   40.4071   -7.5540 O.2         1 N44      -0.3884
     32 O32       -22.8003   43.5566   -3.9738 O.co2       1 N44      -0.5668
     33 O33       -18.8277   45.8978   -1.7503 O.3         1 N44      -0.2947
     34 O34       -21.0678   45.0853   -1.8528 O.3         1 N44      -0.2890
     35 H1        -24.4167   43.7561  -14.0540 H           1 N44       0.0559
     36 H2        -17.6521   39.3674   -6.9625 H           1 N44       0.0572
     37 H3        -25.9770   42.0012  -13.4373 H           1 N44       0.0599
     38 H4        -22.2806   43.9426  -12.9093 H           1 N44       0.0599
     39 H5        -17.1564   41.5555   -6.0594 H           1 N44       0.0635
     40 H6        -19.7482   38.9475   -8.0620 H           1 N44       0.0651
     41 H7        -25.3951   40.4047  -11.7324 H           1 N44       0.0557
     42 H8        -21.6636   42.3278  -11.2416 H           1 N44       0.0557
     43 H9        -18.7662   43.3188   -6.2166 H           1 N44       0.0570
     44 H10       -18.8495   46.6814   -6.2203 H           1 N44       0.0445
     45 H11       -17.7042   46.7367   -4.0946 H           1 N44       0.0514
     46 H12       -23.9170   45.8078  -10.1764 H           1 N44       0.0292
     47 H13       -22.6407   46.7857   -9.5914 H           1 N44       0.0292
     48 H14       -22.6703   43.8941   -9.8327 H           1 N44       0.0725
     49 H15       -20.1658   45.8522   -0.1659 H           1 N44       0.0973
     50 H16       -19.5583   44.2672   -0.7011 H           1 N44       0.0973
     51 H17       -22.8887   39.2190  -10.9330 H           1 N44       0.0683
     52 H18       -23.9186   39.8941   -9.6866 H           1 N44       0.0683
     53 H19       -21.4934   43.3492   -6.0356 H           1 N44       0.0995
     54 H20       -22.2131   43.0766   -7.5843 H           1 N44       0.0995
     55 H21       -21.0477   46.7426   -7.3630 H           1 N44       0.0966
     56 H22       -22.3694   45.7446   -6.8146 H           1 N44       0.0966
     57 H23       -20.3823   45.7123   -9.3843 H           1 N44       0.0998
     58 H24       -20.3424   43.9864   -9.6021 H           1 N44       0.0998
     59 H25       -21.1059   40.5829  -10.1543 H           1 N44       0.1869
     60 H26       -19.7399   44.6370   -7.4602 H           1 N44       0.2082
@<TRIPOS>BOND
     1     3     1  ar
     2     4     1  ar
     3     5     2  ar
     4     6     2  ar
     5     7     3  ar
     6     8     4  ar
     7     9     5  ar
     8    12     6  ar
     9    14     7  ar
    10    14     8  ar
    11    15     9  ar
    12    10    11  ar
    13    16    10  ar
    14    11    17  ar
    15    15    12  ar
    16    12    21   1
    17    16    13  ar
    18    13    18  ar
    19    13    22   1
    20    24    14   1
    21    25    15   1
    22    26    16   1
    23    18    17  ar
    24    17    33   1
    25    18    34   1
    26    20    19   2
    27    27    20   1
    28    21    28  am
    29    21    31   2
    30    22    30  ar
    31    22    32  ar
    32    23    33   1
    33    34    23   1
    34    28    24   1
    35    29    25   1
    36    29    26   1
    37    27    29   1
    38     1    35   1
    39     2    36   1
    40     3    37   1
    41     4    38   1
    42     5    39   1
    43     6    40   1
    44     7    41   1
    45     8    42   1
    46     9    43   1
    47    10    44   1
    48    11    45   1
    49    19    46   1
    50    19    47   1
    51    20    48   1
    52    23    49   1
    53    23    50   1
    54    24    51   1
    55    24    52   1
    56    25    53   1
    57    25    54   1
    58    26    55   1
    59    26    56   1
    60    27    57   1
    61    27    58   1
    62    28    59   1
    63    29    60   1
@<TRIPOS>SUBSTRUCTURE
     1  N44      1

