@<TRIPOS>MOLECULE
3zsx_ligand_036
    60    63
SMALL
GAST_HUCK
****
This file was generated by PARSER (from files_GN.cpp)

@<TRIPOS>ATOM
      1 C1        -25.2839   37.1856   -3.3828 C.ar        1 N44      -0.0687
      2 C2        -25.5691   44.9263   -5.1681 C.ar        1 N44      -0.0630
      3 C3        -25.9014   38.4427   -3.2517 C.ar        1 N44      -0.0685
      4 C4        -23.8943   37.0667   -3.2118 C.ar        1 N44      -0.0685
      5 C5        -24.9008   45.5209   -6.2447 C.ar        1 N44      -0.0640
      6 C6        -25.0565   43.7521   -4.5923 C.ar        1 N44      -0.0483
      7 C7        -25.1293   39.5776   -2.9388 C.ar        1 N44      -0.0584
      8 C8        -23.1210   38.2017   -2.9082 C.ar        1 N44      -0.0584
      9 C9        -23.7107   44.9507   -6.7353 C.ar        1 N44      -0.0493
     10 C10       -20.3261   39.7965   -9.3799 C.ar        1 N44      -0.0712
     11 C11       -20.3835   38.5115   -9.9420 C.ar        1 N44      -0.0449
     12 C12       -23.8658   43.1438   -5.0812 C.ar        1 N44       0.0564
     13 C13       -20.2637   38.8512   -7.1107 C.ar        1 N44       0.0376
     14 C14       -23.7295   39.4741   -2.7683 C.ar        1 N44      -0.0211
     15 C15       -23.1716   43.7639   -6.1690 C.ar        1 N44       0.0219
     16 C16       -20.3114   39.9988   -7.9747 C.ar        1 N44      -0.0032
     17 C17       -20.3913   37.4031   -9.0883 C.ar        1 N44       0.1200
     18 C18       -20.3265   37.5671   -7.7173 C.ar        1 N44       0.1327
     19 C19       -25.0302   41.6704   -9.2389 C.2         1 N44      -0.1125
     20 C20       -24.1212   41.7251   -8.2536 C.2         1 N44      -0.0447
     21 C21       -23.4554   41.9555   -4.4874 C.2         1 N44       0.2021
     22 C22       -20.1234   38.8987   -5.6937 C.2         1 N44       0.0515
     23 C23       -20.5233   35.4442   -8.1965 C.3         1 N44       0.1864
     24 C24       -22.9257   40.6837   -2.4338 C.3         1 N44       0.0638
     25 C25       -21.8636   43.2655   -6.7081 C.3         1 N44       0.0086
     26 C26       -20.4007   41.4207   -7.5008 C.3         1 N44       0.0003
     27 C27       -22.6898   41.6957   -8.5091 C.3         1 N44      -0.0011
     28 N28       -23.3046   41.8542   -3.1669 N.am        1 N44      -0.2760
     29 N29       -21.8287   41.8689   -7.2780 N.4         1 N44       0.2715
     30 O30       -19.5614   37.8755   -5.0067 O.co2       1 N44      -0.5668
     31 O31       -23.3543   40.9548   -5.1913 O.2         1 N44      -0.3884
     32 O32       -20.4017   39.9758   -4.9348 O.co2       1 N44      -0.5668
     33 O33       -20.4431   36.1131   -9.4680 O.3         1 N44      -0.2947
     34 O34       -20.3439   36.3596   -7.1036 O.3         1 N44      -0.2890
     35 H1        -25.8464   36.3625   -3.5990 H           1 N44       0.0559
     36 H2        -26.4277   45.3461   -4.8013 H           1 N44       0.0572
     37 H3        -26.9139   38.5309   -3.3734 H           1 N44       0.0599
     38 H4        -23.4437   36.1505   -3.3050 H           1 N44       0.0599
     39 H5        -25.2750   46.3809   -6.6666 H           1 N44       0.0635
     40 H6        -25.5833   43.3346   -3.8162 H           1 N44       0.0651
     41 H7        -25.5969   40.4851   -2.8363 H           1 N44       0.0557
     42 H8        -22.1115   38.0942   -2.7891 H           1 N44       0.0557
     43 H9        -23.2473   45.4156   -7.5195 H           1 N44       0.0570
     44 H10       -20.3208   40.5941  -10.0209 H           1 N44       0.0445
     45 H11       -20.4498   38.3948  -10.9555 H           1 N44       0.0514
     46 H12       -25.9984   41.6828   -9.0275 H           1 N44       0.0292
     47 H13       -24.7535   41.6095  -10.1935 H           1 N44       0.0292
     48 H14       -24.4599   41.7510   -7.3144 H           1 N44       0.0725
     49 H15       -19.7514   34.6694   -8.1495 H           1 N44       0.0973
     50 H16       -21.5009   34.9579   -8.1082 H           1 N44       0.0973
     51 H17       -21.8561   40.5069   -2.5939 H           1 N44       0.0683
     52 H18       -23.0626   40.8982   -1.3701 H           1 N44       0.0683
     53 H19       -21.1510   43.3311   -5.8844 H           1 N44       0.0995
     54 H20       -21.4856   43.9541   -7.4754 H           1 N44       0.0995
     55 H21       -19.9278   42.1053   -8.2200 H           1 N44       0.0966
     56 H22       -19.7872   41.5080   -6.6013 H           1 N44       0.0966
     57 H23       -22.4369   42.4721   -9.2490 H           1 N44       0.0998
     58 H24       -22.4994   40.7229   -8.9731 H           1 N44       0.0998
     59 H25       -23.4415   42.6646   -2.6466 H           1 N44       0.1869
     60 H26       -22.2114   41.2465   -6.5610 H           1 N44       0.2082
@<TRIPOS>BOND
     1     3     1  ar
     2     4     1  ar
     3     5     2  ar
     4     6     2  ar
     5     7     3  ar
     6     8     4  ar
     7     9     5  ar
     8    12     6  ar
     9    14     7  ar
    10    14     8  ar
    11    15     9  ar
    12    10    11  ar
    13    16    10  ar
    14    11    17  ar
    15    15    12  ar
    16    12    21   1
    17    16    13  ar
    18    13    18  ar
    19    13    22   1
    20    24    14   1
    21    25    15   1
    22    26    16   1
    23    18    17  ar
    24    17    33   1
    25    18    34   1
    26    20    19   2
    27    27    20   1
    28    21    28  am
    29    21    31   2
    30    22    30  ar
    31    22    32  ar
    32    23    33   1
    33    34    23   1
    34    28    24   1
    35    29    25   1
    36    29    26   1
    37    27    29   1
    38     1    35   1
    39     2    36   1
    40     3    37   1
    41     4    38   1
    42     5    39   1
    43     6    40   1
    44     7    41   1
    45     8    42   1
    46     9    43   1
    47    10    44   1
    48    11    45   1
    49    19    46   1
    50    19    47   1
    51    20    48   1
    52    23    49   1
    53    23    50   1
    54    24    51   1
    55    24    52   1
    56    25    53   1
    57    25    54   1
    58    26    55   1
    59    26    56   1
    60    27    57   1
    61    27    58   1
    62    28    59   1
    63    29    60   1
@<TRIPOS>SUBSTRUCTURE
     1  N44      1

