@<TRIPOS>MOLECULE
3zsx_ligand_032
    60    63
SMALL
GAST_HUCK
****
This file was generated by PARSER (from files_GN.cpp)

@<TRIPOS>ATOM
      1 C1        -20.0248   42.3431   -8.6042 C.ar        1 N44      -0.0687
      2 C2        -17.6994   49.8296   -4.7174 C.ar        1 N44      -0.0630
      3 C3        -20.0913   43.4945   -9.4127 C.ar        1 N44      -0.0685
      4 C4        -20.4039   42.4149   -7.2500 C.ar        1 N44      -0.0685
      5 C5        -16.7529   49.4242   -3.7667 C.ar        1 N44      -0.0640
      6 C6        -18.7027   48.9386   -5.1320 C.ar        1 N44      -0.0483
      7 C7        -20.5286   44.7163   -8.8615 C.ar        1 N44      -0.0584
      8 C8        -20.8421   43.6386   -6.7041 C.ar        1 N44      -0.0584
      9 C9        -16.8006   48.1168   -3.2467 C.ar        1 N44      -0.0493
     10 C10       -14.8105   43.9312   -2.6981 C.ar        1 N44      -0.0712
     11 C11       -13.5081   44.1640   -3.1757 C.ar        1 N44      -0.0449
     12 C12       -18.7749   47.6135   -4.6183 C.ar        1 N44       0.0564
     13 C13       -14.4838   45.5825   -0.9162 C.ar        1 N44       0.0376
     14 C14       -20.9010   44.8068   -7.4999 C.ar        1 N44      -0.0211
     15 C15       -17.7854   47.1877   -3.6742 C.ar        1 N44       0.0219
     16 C16       -15.3350   44.6384   -1.5805 C.ar        1 N44      -0.0032
     17 C17       -12.7266   45.1493   -2.5626 C.ar        1 N44       0.1200
     18 C18       -13.1986   45.8430   -1.4583 C.ar        1 N44       0.1327
     19 C19       -20.9156   44.3602   -0.0122 C.2         1 N44      -0.1125
     20 C20       -19.6182   44.5120   -0.3223 C.2         1 N44      -0.0447
     21 C21       -19.8377   46.8066   -5.0460 C.2         1 N44       0.2021
     22 C22       -14.8459   46.2173    0.2910 C.2         1 N44       0.0515
     23 C23       -11.1185   46.3669   -1.8107 C.3         1 N44       0.1864
     24 C24       -21.3132   46.1001   -6.9091 C.3         1 N44       0.0638
     25 C25       -17.5730   45.7640   -3.2512 C.3         1 N44       0.0086
     26 C26       -16.7875   44.4449   -1.2486 C.3         1 N44       0.0003
     27 C27       -19.1560   45.4260   -1.3647 C.3         1 N44      -0.0011
     28 N28       -20.1900   46.7771   -6.3325 N.am        1 N44      -0.2760
     29 N29       -17.6995   45.5335   -1.7560 N.4         1 N44       0.2715
     30 O30       -14.8678   45.4922    1.4319 O.co2       1 N44      -0.5668
     31 O31       -20.4902   46.2018   -4.1999 O.2         1 N44      -0.3884
     32 O32       -14.7753   47.5628    0.4323 O.co2       1 N44      -0.5668
     33 O33       -11.4855   45.5234   -2.9178 O.3         1 N44      -0.2947
     34 O34       -12.2597   46.7043   -1.0024 O.3         1 N44      -0.2890
     35 H1        -19.7014   41.4589   -9.0013 H           1 N44       0.0559
     36 H2        -17.6465   50.7727   -5.1129 H           1 N44       0.0572
     37 H3        -19.8119   43.4431  -10.3950 H           1 N44       0.0599
     38 H4        -20.3583   41.5778   -6.6627 H           1 N44       0.0599
     39 H5        -16.0122   50.0630   -3.4681 H           1 N44       0.0635
     40 H6        -19.3851   49.2838   -5.8117 H           1 N44       0.0651
     41 H7        -20.5538   45.5432   -9.4609 H           1 N44       0.0557
     42 H8        -21.1175   43.6662   -5.7208 H           1 N44       0.0557
     43 H9        -16.0751   47.8313   -2.5887 H           1 N44       0.0570
     44 H10       -15.3840   43.2474   -3.1963 H           1 N44       0.0445
     45 H11       -13.1436   43.6488   -3.9828 H           1 N44       0.0514
     46 H12       -21.2030   43.6884    0.6699 H           1 N44       0.0292
     47 H13       -21.6290   44.8833   -0.4672 H           1 N44       0.0292
     48 H14       -18.9840   43.9264    0.1569 H           1 N44       0.0725
     49 H15       -10.6565   47.2800   -2.1983 H           1 N44       0.0973
     50 H16       -10.3794   45.8435   -1.1924 H           1 N44       0.0973
     51 H17       -22.1128   45.9592   -6.1794 H           1 N44       0.0683
     52 H18       -21.7152   46.7564   -7.6829 H           1 N44       0.0683
     53 H19       -16.5594   45.5181   -3.6138 H           1 N44       0.0995
     54 H20       -18.2135   45.0729   -3.7965 H           1 N44       0.0995
     55 H21       -16.8165   44.3898   -0.1632 H           1 N44       0.0966
     56 H22       -17.1467   43.4808   -1.6189 H           1 N44       0.0966
     57 H23       -19.4486   46.4342   -1.0370 H           1 N44       0.0998
     58 H24       -19.7530   45.1802   -2.2539 H           1 N44       0.0998
     59 H25       -19.6329   47.2846   -6.9556 H           1 N44       0.1869
     60 H26       -17.3429   46.3722   -1.2907 H           1 N44       0.2082
@<TRIPOS>BOND
     1     3     1  ar
     2     4     1  ar
     3     5     2  ar
     4     6     2  ar
     5     7     3  ar
     6     8     4  ar
     7     9     5  ar
     8    12     6  ar
     9    14     7  ar
    10    14     8  ar
    11    15     9  ar
    12    10    11  ar
    13    16    10  ar
    14    11    17  ar
    15    15    12  ar
    16    12    21   1
    17    16    13  ar
    18    13    18  ar
    19    13    22   1
    20    24    14   1
    21    25    15   1
    22    26    16   1
    23    18    17  ar
    24    17    33   1
    25    18    34   1
    26    20    19   2
    27    27    20   1
    28    21    28  am
    29    21    31   2
    30    22    30  ar
    31    22    32  ar
    32    23    33   1
    33    34    23   1
    34    28    24   1
    35    29    25   1
    36    29    26   1
    37    27    29   1
    38     1    35   1
    39     2    36   1
    40     3    37   1
    41     4    38   1
    42     5    39   1
    43     6    40   1
    44     7    41   1
    45     8    42   1
    46     9    43   1
    47    10    44   1
    48    11    45   1
    49    19    46   1
    50    19    47   1
    51    20    48   1
    52    23    49   1
    53    23    50   1
    54    24    51   1
    55    24    52   1
    56    25    53   1
    57    25    54   1
    58    26    55   1
    59    26    56   1
    60    27    57   1
    61    27    58   1
    62    28    59   1
    63    29    60   1
@<TRIPOS>SUBSTRUCTURE
     1  N44      1

