@<TRIPOS>MOLECULE
3zsx_ligand_077
    60    63
SMALL
GAST_HUCK
****
This file was generated by PARSER (from files_GN.cpp)

@<TRIPOS>ATOM
      1 C1        -22.3888   42.2634    2.6612 C.ar        1 N44      -0.0687
      2 C2        -15.9239   44.0220   -1.7156 C.ar        1 N44      -0.0630
      3 C3        -22.0615   43.5431    3.1442 C.ar        1 N44      -0.0685
      4 C4        -22.3303   41.9986    1.2802 C.ar        1 N44      -0.0685
      5 C5        -15.1876   44.8231   -2.5885 C.ar        1 N44      -0.0640
      6 C6        -17.2332   44.3884   -1.3708 C.ar        1 N44      -0.0483
      7 C7        -21.6729   44.5566    2.2483 C.ar        1 N44      -0.0584
      8 C8        -21.9415   43.0137    0.3857 C.ar        1 N44      -0.0584
      9 C9        -15.7628   45.9868   -3.1080 C.ar        1 N44      -0.0493
     10 C10       -15.4249   48.6927   -6.0500 C.ar        1 N44      -0.0712
     11 C11       -14.6534   49.6758   -6.6912 C.ar        1 N44      -0.0449
     12 C12       -17.8597   45.5638   -1.8791 C.ar        1 N44       0.0564
     13 C13       -16.9909   48.6331   -7.9278 C.ar        1 N44       0.0376
     14 C14       -21.5977   44.3026    0.8577 C.ar        1 N44      -0.0211
     15 C15       -17.0825   46.3874   -2.7752 C.ar        1 N44       0.0219
     16 C16       -16.6204   48.1827   -6.6190 C.ar        1 N44      -0.0032
     17 C17       -15.0773   50.1536   -7.9373 C.ar        1 N44       0.1200
     18 C18       -16.2159   49.6430   -8.5458 C.ar        1 N44       0.1327
     19 C19       -18.2139   50.9103   -4.1052 C.2         1 N44      -0.1125
     20 C20       -18.5734   50.1160   -5.1210 C.2         1 N44      -0.0447
     21 C21       -19.1650   45.8829   -1.4260 C.2         1 N44       0.2021
     22 C22       -18.0666   48.1023   -8.6645 C.2         1 N44       0.0515
     23 C23       -15.5272   51.3793   -9.6382 C.3         1 N44       0.1864
     24 C24       -21.1793   45.3607   -0.0983 C.3         1 N44       0.0638
     25 C25       -17.5243   47.7166   -3.3286 C.3         1 N44       0.0086
     26 C26       -17.3941   47.1603   -5.8344 C.3         1 N44       0.0003
     27 C27       -19.1421   48.7790   -4.9547 C.3         1 N44      -0.0011
     28 N28       -19.8892   45.0779   -0.6504 N.am        1 N44      -0.2760
     29 N29       -18.2228   47.6222   -4.6608 N.4         1 N44       0.2715
     30 O30       -19.3305   48.4891   -8.4009 O.co2       1 N44      -0.5668
     31 O31       -19.6842   46.9537   -1.7159 O.2         1 N44      -0.3884
     32 O32       -17.8346   47.4746   -9.8378 O.co2       1 N44      -0.5668
     33 O33       -14.4756   51.0934   -8.7012 O.3         1 N44      -0.2947
     34 O34       -16.4316   50.2613   -9.7294 O.3         1 N44      -0.2890
     35 H1        -22.6686   41.5240    3.3147 H           1 N44       0.0559
     36 H2        -15.5061   43.1718   -1.3261 H           1 N44       0.0572
     37 H3        -22.1132   43.7366    4.1487 H           1 N44       0.0599
     38 H4        -22.5743   41.0693    0.9293 H           1 N44       0.0599
     39 H5        -14.2262   44.5661   -2.8333 H           1 N44       0.0635
     40 H6        -17.7153   43.7605   -0.7261 H           1 N44       0.0651
     41 H7        -21.4411   45.4791    2.6213 H           1 N44       0.0557
     42 H8        -21.9074   42.8035   -0.6139 H           1 N44       0.0557
     43 H9        -15.1837   46.5500   -3.7314 H           1 N44       0.0570
     44 H10       -15.0781   48.3290   -5.1685 H           1 N44       0.0445
     45 H11       -13.8005   50.0355   -6.2598 H           1 N44       0.0514
     46 H12       -17.9333   51.8420   -4.2791 H           1 N44       0.0292
     47 H13       -18.2713   50.6000   -3.1648 H           1 N44       0.0292
     48 H14       -18.5709   50.5108   -6.0328 H           1 N44       0.0725
     49 H15       -15.1048   51.5933  -10.6196 H           1 N44       0.0973
     50 H16       -16.0718   52.2671   -9.3007 H           1 N44       0.0973
     51 H17       -21.1468   46.3394    0.3941 H           1 N44       0.0683
     52 H18       -21.9159   45.4208   -0.9052 H           1 N44       0.0683
     53 H19       -16.7047   48.4196   -3.4078 H           1 N44       0.0995
     54 H20       -18.1768   48.1642   -2.5728 H           1 N44       0.0995
     55 H21       -16.6985   46.3881   -5.5028 H           1 N44       0.0966
     56 H22       -18.0800   46.6277   -6.5005 H           1 N44       0.0966
     57 H23       -19.7027   48.5341   -5.8611 H           1 N44       0.0998
     58 H24       -19.9107   48.8332   -4.1734 H           1 N44       0.0998
     59 H25       -19.4931   44.2355   -0.3796 H           1 N44       0.1869
     60 H26       -18.8736   46.8484   -4.5266 H           1 N44       0.2082
@<TRIPOS>BOND
     1     3     1  ar
     2     4     1  ar
     3     5     2  ar
     4     6     2  ar
     5     7     3  ar
     6     8     4  ar
     7     9     5  ar
     8    12     6  ar
     9    14     7  ar
    10    14     8  ar
    11    15     9  ar
    12    10    11  ar
    13    16    10  ar
    14    11    17  ar
    15    15    12  ar
    16    12    21   1
    17    16    13  ar
    18    13    18  ar
    19    13    22   1
    20    24    14   1
    21    25    15   1
    22    26    16   1
    23    18    17  ar
    24    17    33   1
    25    18    34   1
    26    20    19   2
    27    27    20   1
    28    21    28  am
    29    21    31   2
    30    22    30  ar
    31    22    32  ar
    32    23    33   1
    33    34    23   1
    34    28    24   1
    35    29    25   1
    36    29    26   1
    37    27    29   1
    38     1    35   1
    39     2    36   1
    40     3    37   1
    41     4    38   1
    42     5    39   1
    43     6    40   1
    44     7    41   1
    45     8    42   1
    46     9    43   1
    47    10    44   1
    48    11    45   1
    49    19    46   1
    50    19    47   1
    51    20    48   1
    52    23    49   1
    53    23    50   1
    54    24    51   1
    55    24    52   1
    56    25    53   1
    57    25    54   1
    58    26    55   1
    59    26    56   1
    60    27    57   1
    61    27    58   1
    62    28    59   1
    63    29    60   1
@<TRIPOS>SUBSTRUCTURE
     1  N44      1

