@<TRIPOS>MOLECULE
3zsx_ligand_060
    60    63
SMALL
GAST_HUCK
****
This file was generated by PARSER (from files_GN.cpp)

@<TRIPOS>ATOM
      1 C1        -12.0968   46.2902   -2.1382 C.ar        1 N44      -0.0687
      2 C2        -19.5817   49.0188   -5.1198 C.ar        1 N44      -0.0630
      3 C3        -12.5048   45.3434   -3.0950 C.ar        1 N44      -0.0685
      4 C4        -13.0386   46.8329   -1.2501 C.ar        1 N44      -0.0685
      5 C5        -20.5367   49.4353   -4.1842 C.ar        1 N44      -0.0640
      6 C6        -18.7837   47.8976   -4.8470 C.ar        1 N44      -0.0483
      7 C7        -13.8540   44.9436   -3.1625 C.ar        1 N44      -0.0584
      8 C8        -14.3871   46.4335   -1.3163 C.ar        1 N44      -0.0584
      9 C9        -20.7141   48.7159   -2.9901 C.ar        1 N44      -0.0493
     10 C10       -23.7188   46.8727    0.3348 C.ar        1 N44      -0.0712
     11 C11       -24.4855   47.6715    1.2013 C.ar        1 N44      -0.0449
     12 C12       -18.9323   47.1717   -3.6372 C.ar        1 N44       0.0564
     13 C13       -22.2786   46.1590    2.1963 C.ar        1 N44       0.0376
     14 C14       -14.8155   45.4793   -2.2714 C.ar        1 N44      -0.0211
     15 C15       -19.9327   47.5697   -2.6931 C.ar        1 N44       0.0219
     16 C16       -22.5900   46.1354    0.7942 C.ar        1 N44      -0.0032
     17 C17       -24.1361   47.7255    2.5534 C.ar        1 N44       0.1200
     18 C18       -23.0638   46.9872    3.0393 C.ar        1 N44       0.1327
     19 C19       -22.1179   45.1553   -5.1132 C.2         1 N44      -0.1125
     20 C20       -22.1912   45.6898   -3.8907 C.2         1 N44      -0.0447
     21 C21       -18.1234   46.0613   -3.4679 C.2         1 N44       0.2021
     22 C22       -21.2935   45.3398    2.8113 C.2         1 N44       0.0515
     23 C23       -23.9223   48.1823    4.6402 C.3         1 N44       0.1864
     24 C24       -16.2284   45.0147   -2.2744 C.3         1 N44       0.0638
     25 C25       -20.2793   46.7961   -1.4473 C.3         1 N44       0.0086
     26 C26       -21.8822   45.2851   -0.2209 C.3         1 N44       0.0003
     27 C27       -21.5995   45.0545   -2.7206 C.3         1 N44      -0.0011
     28 N28       -17.1464   46.0760   -2.5654 N.am        1 N44      -0.2760
     29 N29       -21.5549   45.9820   -1.5272 N.4         1 N44       0.2715
     30 O30       -21.1171   44.0439    2.4464 O.co2       1 N44      -0.5668
     31 O31       -18.3427   45.0902   -4.1837 O.2         1 N44      -0.3884
     32 O32       -20.7002   45.7080    3.9697 O.co2       1 N44      -0.5668
     33 O33       -24.7926   48.3942    3.5166 O.3         1 N44      -0.2947
     34 O34       -22.9866   47.1176    4.3826 O.3         1 N44      -0.2890
     35 H1        -11.1169   46.5753   -2.0854 H           1 N44       0.0559
     36 H2        -19.4663   49.5283   -5.9990 H           1 N44       0.0572
     37 H3        -11.8158   44.9414   -3.7357 H           1 N44       0.0599
     38 H4        -12.7421   47.5166   -0.5471 H           1 N44       0.0599
     39 H5        -21.1136   50.2577   -4.3788 H           1 N44       0.0635
     40 H6        -18.0935   47.6106   -5.5496 H           1 N44       0.0651
     41 H7        -14.1229   44.2416   -3.8571 H           1 N44       0.0557
     42 H8        -15.0537   46.8300   -0.6498 H           1 N44       0.0557
     43 H9        -21.4374   49.0288   -2.3386 H           1 N44       0.0570
     44 H10       -24.0095   46.8202   -0.6445 H           1 N44       0.0445
     45 H11       -25.2967   48.1879    0.8504 H           1 N44       0.0514
     46 H12       -22.5856   45.5906   -5.8730 H           1 N44       0.0292
     47 H13       -21.6219   44.3126   -5.2792 H           1 N44       0.0292
     48 H14       -22.7291   46.5211   -3.7719 H           1 N44       0.0725
     49 H15       -24.5183   47.9346    5.5224 H           1 N44       0.0973
     50 H16       -23.3653   49.1025    4.8477 H           1 N44       0.0973
     51 H17       -16.4679   44.6401   -1.2770 H           1 N44       0.0683
     52 H18       -16.3581   44.1721   -2.9634 H           1 N44       0.0683
     53 H19       -20.3728   47.5178   -0.6301 H           1 N44       0.0995
     54 H20       -19.4586   46.1357   -1.1655 H           1 N44       0.0995
     55 H21       -22.5738   44.4532   -0.3789 H           1 N44       0.0966
     56 H22       -20.9671   44.8469    0.1779 H           1 N44       0.0966
     57 H23       -20.5817   44.7013   -2.9538 H           1 N44       0.0998
     58 H24       -22.2219   44.1672   -2.5303 H           1 N44       0.0998
     59 H25       -17.0661   46.8787   -2.0203 H           1 N44       0.1869
     60 H26       -22.2997   46.6632   -1.6726 H           1 N44       0.2082
@<TRIPOS>BOND
     1     3     1  ar
     2     4     1  ar
     3     5     2  ar
     4     6     2  ar
     5     7     3  ar
     6     8     4  ar
     7     9     5  ar
     8    12     6  ar
     9    14     7  ar
    10    14     8  ar
    11    15     9  ar
    12    10    11  ar
    13    16    10  ar
    14    11    17  ar
    15    15    12  ar
    16    12    21   1
    17    16    13  ar
    18    13    18  ar
    19    13    22   1
    20    24    14   1
    21    25    15   1
    22    26    16   1
    23    18    17  ar
    24    17    33   1
    25    18    34   1
    26    20    19   2
    27    27    20   1
    28    21    28  am
    29    21    31   2
    30    22    30  ar
    31    22    32  ar
    32    23    33   1
    33    34    23   1
    34    28    24   1
    35    29    25   1
    36    29    26   1
    37    27    29   1
    38     1    35   1
    39     2    36   1
    40     3    37   1
    41     4    38   1
    42     5    39   1
    43     6    40   1
    44     7    41   1
    45     8    42   1
    46     9    43   1
    47    10    44   1
    48    11    45   1
    49    19    46   1
    50    19    47   1
    51    20    48   1
    52    23    49   1
    53    23    50   1
    54    24    51   1
    55    24    52   1
    56    25    53   1
    57    25    54   1
    58    26    55   1
    59    26    56   1
    60    27    57   1
    61    27    58   1
    62    28    59   1
    63    29    60   1
@<TRIPOS>SUBSTRUCTURE
     1  N44      1

