@<TRIPOS>MOLECULE
3zsx_ligand_069
    60    63
SMALL
GAST_HUCK
****
This file was generated by PARSER (from files_GN.cpp)

@<TRIPOS>ATOM
      1 C1        -16.4939   57.7374   -1.2770 C.ar        1 N44      -0.0687
      2 C2         -9.9636   53.2198   -0.9065 C.ar        1 N44      -0.0630
      3 C3        -17.2841   56.5785   -1.1697 C.ar        1 N44      -0.0685
      4 C4        -15.2661   57.6872   -1.9606 C.ar        1 N44      -0.0685
      5 C5         -9.7445   52.2928    0.1191 C.ar        1 N44      -0.0640
      6 C6        -11.2748   53.5066   -1.3133 C.ar        1 N44      -0.0483
      7 C7        -16.8485   55.3740   -1.7520 C.ar        1 N44      -0.0584
      8 C8        -14.8308   56.4817   -2.5396 C.ar        1 N44      -0.0584
      9 C9        -10.8348   51.6431    0.7119 C.ar        1 N44      -0.0493
     10 C10       -11.4719   47.2695   -1.8600 C.ar        1 N44      -0.0712
     11 C11       -11.4864   46.0253   -2.5095 C.ar        1 N44      -0.0449
     12 C12       -12.4033   52.8603   -0.7322 C.ar        1 N44       0.0564
     13 C13       -12.9719   46.4352   -0.1029 C.ar        1 N44       0.0376
     14 C14       -15.6120   55.3090   -2.4379 C.ar        1 N44      -0.0211
     15 C15       -12.1742   51.8759    0.2941 C.ar        1 N44       0.0219
     16 C16       -12.2466   47.5250   -0.6910 C.ar        1 N44      -0.0032
     17 C17       -12.2902   45.0090   -1.9844 C.ar        1 N44       0.1200
     18 C18       -13.0142   45.2097   -0.8161 C.ar        1 N44       0.1327
     19 C19       -16.4503   51.0189   -0.7166 C.2         1 N44      -0.1125
     20 C20       -15.3584   50.3118   -1.0700 C.2         1 N44      -0.0447
     21 C21       -13.6673   53.2730   -1.1730 C.2         1 N44       0.2021
     22 C22       -13.6437   46.5041    1.1521 C.2         1 N44       0.0515
     23 C23       -13.5380   43.2943   -1.6876 C.3         1 N44       0.1864
     24 C24       -15.1228   54.0415   -3.0385 C.3         1 N44       0.0638
     25 C25       -13.2193   51.0007    0.9452 C.3         1 N44       0.0086
     26 C26       -12.2083   48.9368   -0.1610 C.3         1 N44       0.0003
     27 C27       -14.7493   49.2946   -0.2276 C.3         1 N44      -0.0011
     28 N28       -13.9049   53.5624   -2.4552 N.am        1 N44      -0.2760
     29 N29       -13.4308   49.5823    0.4413 N.4         1 N44       0.2715
     30 O30       -14.4914   45.5317    1.5776 O.co2       1 N44      -0.5668
     31 O31       -14.5312   53.5314   -0.3428 O.2         1 N44      -0.3884
     32 O32       -13.2971   47.4417    2.0733 O.co2       1 N44      -0.5668
     33 O33       -12.4276   43.7627   -2.4726 O.3         1 N44      -0.2947
     34 O34       -13.6745   44.0728   -0.4854 O.3         1 N44      -0.2890
     35 H1        -16.8106   58.6139   -0.8554 H           1 N44       0.0559
     36 H2         -9.1720   53.7058   -1.3346 H           1 N44       0.0572
     37 H3        -18.1724   56.6121   -0.6624 H           1 N44       0.0599
     38 H4        -14.6870   58.5271   -2.0315 H           1 N44       0.0599
     39 H5         -8.7889   52.0882    0.4288 H           1 N44       0.0635
     40 H6        -11.3870   54.2370   -2.0202 H           1 N44       0.0651
     41 H7        -17.4361   54.5392   -1.6562 H           1 N44       0.0557
     42 H8        -13.9330   56.4628   -3.0314 H           1 N44       0.0557
     43 H9        -10.6282   50.9739    1.4587 H           1 N44       0.0570
     44 H10       -10.8780   48.0003   -2.2551 H           1 N44       0.0445
     45 H11       -10.9327   45.8660   -3.3513 H           1 N44       0.0514
     46 H12       -16.8559   51.6604   -1.3579 H           1 N44       0.0292
     47 H13       -16.8775   50.9027    0.1767 H           1 N44       0.0292
     48 H14       -14.9669   50.4671   -1.9686 H           1 N44       0.0725
     49 H15       -13.3898   42.2468   -1.4317 H           1 N44       0.0973
     50 H16       -14.4559   43.3656   -2.2808 H           1 N44       0.0973
     51 H17       -14.9387   54.2126   -4.1022 H           1 N44       0.0683
     52 H18       -15.8733   53.2518   -2.9738 H           1 N44       0.0683
     53 H19       -14.1715   51.5178    1.0138 H           1 N44       0.0995
     54 H20       -12.9434   50.8946    1.9997 H           1 N44       0.0995
     55 H21       -11.8713   49.5994   -0.9634 H           1 N44       0.0966
     56 H22       -11.4274   48.9206    0.6022 H           1 N44       0.0966
     57 H23       -14.6833   48.4050   -0.8549 H           1 N44       0.0998
     58 H24       -15.4333   49.0247    0.5820 H           1 N44       0.0998
     59 H25       -13.1740   53.4113   -3.0801 H           1 N44       0.1869
     60 H26       -13.5316   49.0667    1.3170 H           1 N44       0.2082
@<TRIPOS>BOND
     1     3     1  ar
     2     4     1  ar
     3     5     2  ar
     4     6     2  ar
     5     7     3  ar
     6     8     4  ar
     7     9     5  ar
     8    12     6  ar
     9    14     7  ar
    10    14     8  ar
    11    15     9  ar
    12    10    11  ar
    13    16    10  ar
    14    11    17  ar
    15    15    12  ar
    16    12    21   1
    17    16    13  ar
    18    13    18  ar
    19    13    22   1
    20    24    14   1
    21    25    15   1
    22    26    16   1
    23    18    17  ar
    24    17    33   1
    25    18    34   1
    26    20    19   2
    27    27    20   1
    28    21    28  am
    29    21    31   2
    30    22    30  ar
    31    22    32  ar
    32    23    33   1
    33    34    23   1
    34    28    24   1
    35    29    25   1
    36    29    26   1
    37    27    29   1
    38     1    35   1
    39     2    36   1
    40     3    37   1
    41     4    38   1
    42     5    39   1
    43     6    40   1
    44     7    41   1
    45     8    42   1
    46     9    43   1
    47    10    44   1
    48    11    45   1
    49    19    46   1
    50    19    47   1
    51    20    48   1
    52    23    49   1
    53    23    50   1
    54    24    51   1
    55    24    52   1
    56    25    53   1
    57    25    54   1
    58    26    55   1
    59    26    56   1
    60    27    57   1
    61    27    58   1
    62    28    59   1
    63    29    60   1
@<TRIPOS>SUBSTRUCTURE
     1  N44      1

