@<TRIPOS>MOLECULE
3zsx_ligand_039
    60    63
SMALL
GAST_HUCK
****
This file was generated by PARSER (from files_GN.cpp)

@<TRIPOS>ATOM
      1 C1        -12.0881   44.7997    2.0793 C.ar        1 N44      -0.0687
      2 C2        -19.3550   45.5546   -1.5395 C.ar        1 N44      -0.0630
      3 C3        -11.2888   44.9465    0.9365 C.ar        1 N44      -0.0685
      4 C4        -13.4467   45.1596    2.0307 C.ar        1 N44      -0.0685
      5 C5        -20.0576   46.7493   -1.7542 C.ar        1 N44      -0.0640
      6 C6        -17.9934   45.4714   -1.8716 C.ar        1 N44      -0.0483
      7 C7        -11.8450   45.4509   -0.2563 C.ar        1 N44      -0.0584
      8 C8        -14.0033   45.6633    0.8402 C.ar        1 N44      -0.0584
      9 C9        -19.4006   47.8524   -2.3324 C.ar        1 N44      -0.0493
     10 C10       -14.4661   49.6466   -6.6512 C.ar        1 N44      -0.0712
     11 C11       -13.2106   50.0108   -7.1688 C.ar        1 N44      -0.0449
     12 C12       -17.3182   46.5772   -2.4468 C.ar        1 N44       0.0564
     13 C13       -14.5881   51.7359   -5.3896 C.ar        1 N44       0.0376
     14 C14       -13.2155   45.8075   -0.3305 C.ar        1 N44      -0.0211
     15 C15       -18.0280   47.7869   -2.7011 C.ar        1 N44       0.0219
     16 C16       -15.1884   50.5024   -5.7814 C.ar        1 N44      -0.0032
     17 C17       -12.6700   51.2527   -6.8198 C.ar        1 N44       0.1200
     18 C18       -13.3336   52.0948   -5.9424 C.ar        1 N44       0.1327
     19 C19       -17.1086   47.9630   -8.0384 C.2         1 N44      -0.1125
     20 C20       -16.7838   47.4981   -6.8229 C.2         1 N44      -0.0447
     21 C21       -15.9706   46.4500   -2.6825 C.2         1 N44       0.2021
     22 C22       -15.1635   52.6263   -4.4682 C.2         1 N44       0.0515
     23 C23       -11.4394   52.9962   -6.5064 C.3         1 N44       0.1864
     24 C24       -13.7446   46.3390   -1.6178 C.3         1 N44       0.0638
     25 C25       -17.4106   48.9864   -3.3654 C.3         1 N44       0.0086
     26 C26       -16.6002   50.1321   -5.4600 C.3         1 N44       0.0003
     27 C27       -17.5190   47.8046   -5.6042 C.3         1 N44      -0.0011
     28 N28       -15.1549   46.5994   -1.6489 N.am        1 N44      -0.2760
     29 N29       -16.8024   48.8088   -4.7399 N.4         1 N44       0.2715
     30 O30       -14.7031   52.6291   -3.1967 O.co2       1 N44      -0.5668
     31 O31       -15.5914   46.0947   -3.7946 O.2         1 N44      -0.3884
     32 O32       -15.8000   53.7280   -4.9255 O.co2       1 N44      -0.5668
     33 O33       -11.5057   51.7681   -7.2484 O.3         1 N44      -0.2947
     34 O34       -12.6379   53.2281   -5.7424 O.3         1 N44      -0.2890
     35 H1        -11.6891   44.4288    2.9461 H           1 N44       0.0559
     36 H2        -19.8303   44.7541   -1.1154 H           1 N44       0.0572
     37 H3        -10.3030   44.6807    0.9690 H           1 N44       0.0599
     38 H4        -14.0371   45.0454    2.8582 H           1 N44       0.0599
     39 H5        -21.0442   46.8152   -1.5039 H           1 N44       0.0635
     40 H6        -17.4986   44.5926   -1.6934 H           1 N44       0.0651
     41 H7        -11.2416   45.5448   -1.0736 H           1 N44       0.0557
     42 H8        -14.9939   45.9170    0.8450 H           1 N44       0.0557
     43 H9        -19.9487   48.6949   -2.5029 H           1 N44       0.0570
     44 H10       -14.8690   48.7579   -6.9539 H           1 N44       0.0445
     45 H11       -12.7125   49.3939   -7.8132 H           1 N44       0.0514
     46 H12       -16.5875   47.6845   -8.8400 H           1 N44       0.0292
     47 H13       -17.8663   48.5908   -8.1637 H           1 N44       0.0292
     48 H14       -15.9968   46.8941   -6.7504 H           1 N44       0.0725
     49 H15       -11.2878   53.8258   -7.1981 H           1 N44       0.0973
     50 H16       -10.5850   52.9572   -5.8291 H           1 N44       0.0973
     51 H17       -13.4871   45.6324   -2.4108 H           1 N44       0.0683
     52 H18       -13.2248   47.2747   -1.8250 H           1 N44       0.0683
     53 H19       -16.6273   49.3634   -2.7001 H           1 N44       0.0995
     54 H20       -18.1643   49.7775   -3.4037 H           1 N44       0.0995
     55 H21       -17.1058   50.1351   -6.4323 H           1 N44       0.0966
     56 H22       -17.1017   50.9365   -4.9201 H           1 N44       0.0966
     57 H23       -17.6256   46.8417   -5.0989 H           1 N44       0.0998
     58 H24       -18.5324   48.1589   -5.8217 H           1 N44       0.0998
     59 H25       -15.5762   46.8879   -0.8250 H           1 N44       0.1869
     60 H26       -15.8696   48.4186   -4.5762 H           1 N44       0.2082
@<TRIPOS>BOND
     1     3     1  ar
     2     4     1  ar
     3     5     2  ar
     4     6     2  ar
     5     7     3  ar
     6     8     4  ar
     7     9     5  ar
     8    12     6  ar
     9    14     7  ar
    10    14     8  ar
    11    15     9  ar
    12    10    11  ar
    13    16    10  ar
    14    11    17  ar
    15    15    12  ar
    16    12    21   1
    17    16    13  ar
    18    13    18  ar
    19    13    22   1
    20    24    14   1
    21    25    15   1
    22    26    16   1
    23    18    17  ar
    24    17    33   1
    25    18    34   1
    26    20    19   2
    27    27    20   1
    28    21    28  am
    29    21    31   2
    30    22    30  ar
    31    22    32  ar
    32    23    33   1
    33    34    23   1
    34    28    24   1
    35    29    25   1
    36    29    26   1
    37    27    29   1
    38     1    35   1
    39     2    36   1
    40     3    37   1
    41     4    38   1
    42     5    39   1
    43     6    40   1
    44     7    41   1
    45     8    42   1
    46     9    43   1
    47    10    44   1
    48    11    45   1
    49    19    46   1
    50    19    47   1
    51    20    48   1
    52    23    49   1
    53    23    50   1
    54    24    51   1
    55    24    52   1
    56    25    53   1
    57    25    54   1
    58    26    55   1
    59    26    56   1
    60    27    57   1
    61    27    58   1
    62    28    59   1
    63    29    60   1
@<TRIPOS>SUBSTRUCTURE
     1  N44      1

