@<TRIPOS>MOLECULE
3zsx_ligand_083
    60    63
SMALL
GAST_HUCK
****
This file was generated by PARSER (from files_GN.cpp)

@<TRIPOS>ATOM
      1 C1         -6.1440   53.4369   -1.7255 C.ar        1 N44      -0.0687
      2 C2        -12.5182   51.9487    2.8895 C.ar        1 N44      -0.0630
      3 C3         -6.2302   52.2504   -2.4776 C.ar        1 N44      -0.0685
      4 C4         -7.3101   54.0177   -1.1967 C.ar        1 N44      -0.0685
      5 C5        -13.1182   50.6988    3.1022 C.ar        1 N44      -0.0640
      6 C6        -12.0768   52.3061    1.6053 C.ar        1 N44      -0.0483
      7 C7         -7.4820   51.6460   -2.6979 C.ar        1 N44      -0.0584
      8 C8         -8.5613   53.4162   -1.4235 C.ar        1 N44      -0.0584
      9 C9        -13.2892   49.8114    2.0269 C.ar        1 N44      -0.0493
     10 C10        -9.1881   46.2401   -0.6778 C.ar        1 N44      -0.0712
     11 C11        -8.5282   44.9985   -0.7089 C.ar        1 N44      -0.0449
     12 C12       -12.2235   51.4118    0.5171 C.ar        1 N44       0.0564
     13 C13       -10.8787   45.3453    0.8498 C.ar        1 N44       0.0376
     14 C14        -8.6649   52.2191   -2.1713 C.ar        1 N44      -0.0211
     15 C15       -12.8452   50.1415    0.7227 C.ar        1 N44       0.0219
     16 C16       -10.3838   46.4345    0.0651 C.ar        1 N44      -0.0032
     17 C17        -9.0797   43.9240   -0.0008 C.ar        1 N44       0.1200
     18 C18       -10.2284   44.0923    0.7565 C.ar        1 N44       0.1327
     19 C19       -15.4615   46.5345   -2.0009 C.2         1 N44      -0.1125
     20 C20       -14.5932   46.6019   -0.9837 C.2         1 N44      -0.0447
     21 C21       -11.7585   51.8255   -0.7135 C.2         1 N44       0.2021
     22 C22       -12.0291   45.4203    1.6606 C.2         1 N44       0.0515
     23 C23        -9.7075   41.9916    0.7109 C.3         1 N44       0.1864
     24 C24        -9.9970   51.6125   -2.4246 C.3         1 N44       0.0638
     25 C25       -13.1356   49.1664   -0.3764 C.3         1 N44       0.0086
     26 C26       -11.0857   47.7579   -0.0613 C.3         1 N44       0.0003
     27 C27       -13.1605   46.7907   -1.1497 C.3         1 N44      -0.0011
     28 N28       -10.6485   51.2826   -1.1963 N.am        1 N44      -0.2760
     29 N29       -12.5927   47.7738   -0.1648 N.4         1 N44       0.2715
     30 O30       -13.0907   44.6352    1.3638 O.co2       1 N44      -0.5668
     31 O31       -12.3586   52.7262   -1.2894 O.2         1 N44      -0.3884
     32 O32       -12.1937   46.4035    2.5765 O.co2       1 N44      -0.5668
     33 O33        -8.6174   42.6587    0.0494 O.3         1 N44      -0.2947
     34 O34       -10.5714   42.9347    1.3643 O.3         1 N44      -0.2890
     35 H1         -5.2337   53.8765   -1.5648 H           1 N44       0.0559
     36 H2        -12.4053   52.6013    3.6685 H           1 N44       0.0572
     37 H3         -5.3819   51.8309   -2.8650 H           1 N44       0.0599
     38 H4         -7.2472   54.8804   -0.6506 H           1 N44       0.0599
     39 H5        -13.4499   50.4410    4.0361 H           1 N44       0.0635
     40 H6        -11.6476   53.2266    1.4731 H           1 N44       0.0651
     41 H7         -7.5237   50.7892   -3.2521 H           1 N44       0.0557
     42 H8         -9.3996   53.8621   -1.0438 H           1 N44       0.0557
     43 H9        -13.7585   48.9178    2.2002 H           1 N44       0.0570
     44 H10        -8.7850   47.0074   -1.2170 H           1 N44       0.0445
     45 H11        -7.6719   44.8766   -1.2530 H           1 N44       0.0514
     46 H12       -16.4278   46.4007   -1.8261 H           1 N44       0.0292
     47 H13       -15.1569   46.5764   -2.9458 H           1 N44       0.0292
     48 H14       -14.9449   46.4970   -0.0566 H           1 N44       0.0725
     49 H15        -9.3114   41.2986    1.4531 H           1 N44       0.0973
     50 H16       -10.2832   41.4208   -0.0248 H           1 N44       0.0973
     51 H17        -9.9115   50.6856   -2.9956 H           1 N44       0.0683
     52 H18       -10.5852   52.3080   -3.0297 H           1 N44       0.0683
     53 H19       -12.7923   49.5411   -1.3428 H           1 N44       0.0995
     54 H20       -14.2264   49.1302   -0.4447 H           1 N44       0.0995
     55 H21       -10.6924   48.3017   -0.9238 H           1 N44       0.0966
     56 H22       -10.7949   48.3243    0.8232 H           1 N44       0.0966
     57 H23       -12.9092   47.0934   -2.1701 H           1 N44       0.0998
     58 H24       -12.7285   45.8020   -0.9952 H           1 N44       0.0998
     59 H25       -10.2261   50.5966   -0.6532 H           1 N44       0.1869
     60 H26       -12.9417   47.4734    0.7469 H           1 N44       0.2082
@<TRIPOS>BOND
     1     3     1  ar
     2     4     1  ar
     3     5     2  ar
     4     6     2  ar
     5     7     3  ar
     6     8     4  ar
     7     9     5  ar
     8    12     6  ar
     9    14     7  ar
    10    14     8  ar
    11    15     9  ar
    12    10    11  ar
    13    16    10  ar
    14    11    17  ar
    15    15    12  ar
    16    12    21   1
    17    16    13  ar
    18    13    18  ar
    19    13    22   1
    20    24    14   1
    21    25    15   1
    22    26    16   1
    23    18    17  ar
    24    17    33   1
    25    18    34   1
    26    20    19   2
    27    27    20   1
    28    21    28  am
    29    21    31   2
    30    22    30  ar
    31    22    32  ar
    32    23    33   1
    33    34    23   1
    34    28    24   1
    35    29    25   1
    36    29    26   1
    37    27    29   1
    38     1    35   1
    39     2    36   1
    40     3    37   1
    41     4    38   1
    42     5    39   1
    43     6    40   1
    44     7    41   1
    45     8    42   1
    46     9    43   1
    47    10    44   1
    48    11    45   1
    49    19    46   1
    50    19    47   1
    51    20    48   1
    52    23    49   1
    53    23    50   1
    54    24    51   1
    55    24    52   1
    56    25    53   1
    57    25    54   1
    58    26    55   1
    59    26    56   1
    60    27    57   1
    61    27    58   1
    62    28    59   1
    63    29    60   1
@<TRIPOS>SUBSTRUCTURE
     1  N44      1

