@<TRIPOS>MOLECULE
3zsx_ligand_010
    60    63
SMALL
GAST_HUCK
****
This file was generated by PARSER (from files_GN.cpp)

@<TRIPOS>ATOM
      1 C1        -15.8359   46.1321   -4.0446 C.ar        1 N44      -0.0687
      2 C2        -22.3234   44.2525  -10.3615 C.ar        1 N44      -0.0630
      3 C3        -16.8052   45.5777   -3.1895 C.ar        1 N44      -0.0685
      4 C4        -16.2143   46.6413   -5.2981 C.ar        1 N44      -0.0685
      5 C5        -21.5472   43.1414  -10.7272 C.ar        1 N44      -0.0640
      6 C6        -22.2538   44.7427   -9.0515 C.ar        1 N44      -0.0483
      7 C7        -18.1530   45.5315   -3.5910 C.ar        1 N44      -0.0584
      8 C8        -17.5656   46.6007   -5.6969 C.ar        1 N44      -0.0584
      9 C9        -20.7148   42.5168   -9.7826 C.ar        1 N44      -0.0493
     10 C10       -22.3759   39.9154   -8.0135 C.ar        1 N44      -0.0712
     11 C11       -23.6353   40.0355   -7.4003 C.ar        1 N44      -0.0449
     12 C12       -21.4154   44.1284   -8.0867 C.ar        1 N44       0.0564
     13 C13       -21.3174   39.4805   -5.8449 C.ar        1 N44       0.0376
     14 C14       -18.5508   46.0419   -4.8487 C.ar        1 N44      -0.0211
     15 C15       -20.6558   42.9664   -8.4402 C.ar        1 N44       0.0219
     16 C16       -21.1945   39.6899   -7.2542 C.ar        1 N44      -0.0032
     17 C17       -23.7199   39.9093   -6.0099 C.ar        1 N44       0.1200
     18 C18       -22.5919   39.6260   -5.2525 C.ar        1 N44       0.1327
     19 C19       -16.0415   42.2623   -6.0884 C.2         1 N44      -0.1125
     20 C20       -17.2748   41.7374   -6.0568 C.2         1 N44      -0.0447
     21 C21       -21.3437   44.7398   -6.8429 C.2         1 N44       0.2021
     22 C22       -20.2367   39.0917   -5.0239 C.2         1 N44       0.0515
     23 C23       -24.2843   39.9150   -3.9314 C.3         1 N44       0.1864
     24 C24       -19.9791   46.0230   -5.2576 C.3         1 N44       0.0638
     25 C25       -19.7748   42.2702   -7.4404 C.3         1 N44       0.0086
     26 C26       -19.8748   39.7457   -7.9699 C.3         1 N44       0.0003
     27 C27       -17.7605   40.7286   -6.9931 C.3         1 N44      -0.0011
     28 N28       -20.1781   45.2041   -6.4126 N.am        1 N44      -0.2760
     29 N29       -19.0301   40.9955   -7.7826 N.4         1 N44       0.2715
     30 O30       -20.0468   39.6346   -3.7987 O.co2       1 N44      -0.5668
     31 O31       -22.3848   44.9747   -6.2374 O.2         1 N44      -0.3884
     32 O32       -19.6456   37.8983   -5.2504 O.co2       1 N44      -0.5668
     33 O33       -24.8330   39.9941   -5.2585 O.3         1 N44      -0.2947
     34 O34       -22.9247   39.4498   -3.9559 O.3         1 N44      -0.2890
     35 H1        -14.8566   46.1692   -3.7507 H           1 N44       0.0559
     36 H2        -22.9261   44.7078  -11.0485 H           1 N44       0.0572
     37 H3        -16.5328   45.2126   -2.2742 H           1 N44       0.0599
     38 H4        -15.5094   47.0478   -5.9179 H           1 N44       0.0599
     39 H5        -21.5840   42.7977  -11.6890 H           1 N44       0.0635
     40 H6        -22.7981   45.5800   -8.8162 H           1 N44       0.0651
     41 H7        -18.8427   45.1287   -2.9524 H           1 N44       0.0557
     42 H8        -17.8242   46.9863   -6.6079 H           1 N44       0.0557
     43 H9        -20.1485   41.7253  -10.0949 H           1 N44       0.0570
     44 H10       -22.3274   40.0301   -9.0291 H           1 N44       0.0445
     45 H11       -24.4719   40.2139   -7.9605 H           1 N44       0.0514
     46 H12       -15.7628   42.9331   -5.4120 H           1 N44       0.0292
     47 H13       -15.3861   41.9981   -6.7868 H           1 N44       0.0292
     48 H14       -17.8976   42.0504   -5.3497 H           1 N44       0.0725
     49 H15       -24.8879   39.2354   -3.3269 H           1 N44       0.0973
     50 H16       -24.3119   40.9065   -3.4702 H           1 N44       0.0973
     51 H17       -20.2927   47.0416   -5.4991 H           1 N44       0.0683
     52 H18       -20.6092   45.6684   -4.4364 H           1 N44       0.0683
     53 H19       -20.3624   42.0687   -6.5406 H           1 N44       0.0995
     54 H20       -19.0385   43.0296   -7.1726 H           1 N44       0.0995
     55 H21       -20.0414   39.6493   -9.0446 H           1 N44       0.0966
     56 H22       -19.3246   38.8316   -7.7303 H           1 N44       0.0966
     57 H23       -17.8450   39.8161   -6.4015 H           1 N44       0.0998
     58 H24       -16.9815   40.5167   -7.7352 H           1 N44       0.0998
     59 H25       -19.4083   45.0653   -6.9896 H           1 N44       0.1869
     60 H26       -18.6633   41.1879   -8.7165 H           1 N44       0.2082
@<TRIPOS>BOND
     1     3     1  ar
     2     4     1  ar
     3     5     2  ar
     4     6     2  ar
     5     7     3  ar
     6     8     4  ar
     7     9     5  ar
     8    12     6  ar
     9    14     7  ar
    10    14     8  ar
    11    15     9  ar
    12    10    11  ar
    13    16    10  ar
    14    11    17  ar
    15    15    12  ar
    16    12    21   1
    17    16    13  ar
    18    13    18  ar
    19    13    22   1
    20    24    14   1
    21    25    15   1
    22    26    16   1
    23    18    17  ar
    24    17    33   1
    25    18    34   1
    26    20    19   2
    27    27    20   1
    28    21    28  am
    29    21    31   2
    30    22    30  ar
    31    22    32  ar
    32    23    33   1
    33    34    23   1
    34    28    24   1
    35    29    25   1
    36    29    26   1
    37    27    29   1
    38     1    35   1
    39     2    36   1
    40     3    37   1
    41     4    38   1
    42     5    39   1
    43     6    40   1
    44     7    41   1
    45     8    42   1
    46     9    43   1
    47    10    44   1
    48    11    45   1
    49    19    46   1
    50    19    47   1
    51    20    48   1
    52    23    49   1
    53    23    50   1
    54    24    51   1
    55    24    52   1
    56    25    53   1
    57    25    54   1
    58    26    55   1
    59    26    56   1
    60    27    57   1
    61    27    58   1
    62    28    59   1
    63    29    60   1
@<TRIPOS>SUBSTRUCTURE
     1  N44      1

