@<TRIPOS>MOLECULE
3zsx_ligand_027
    60    63
SMALL
GAST_HUCK
****
This file was generated by PARSER (from files_GN.cpp)

@<TRIPOS>ATOM
      1 C1         -0.9397   45.5863   -1.3405 C.ar        1 N44      -0.0687
      2 C2         -5.7569   42.6207    5.0722 C.ar        1 N44      -0.0630
      3 C3         -1.6328   46.8103   -1.3471 C.ar        1 N44      -0.0685
      4 C4         -0.9875   44.7616   -0.2021 C.ar        1 N44      -0.0685
      5 C5         -7.1232   42.4248    4.8347 C.ar        1 N44      -0.0640
      6 C6         -5.1164   43.7574    4.5532 C.ar        1 N44      -0.0483
      7 C7         -2.3855   47.2018   -0.2258 C.ar        1 N44      -0.0584
      8 C8         -1.7296   45.1580    0.9245 C.ar        1 N44      -0.0584
      9 C9         -7.8421   43.3503    4.0661 C.ar        1 N44      -0.0493
     10 C10       -10.6353   43.5526   -0.6982 C.ar        1 N44      -0.0712
     11 C11       -11.4842   43.5269   -1.8190 C.ar        1 N44      -0.0449
     12 C12        -5.8368   44.7145    3.7941 C.ar        1 N44       0.0564
     13 C13       -12.3173   44.7835    0.5965 C.ar        1 N44       0.0376
     14 C14        -2.4536   46.3770    0.9243 C.ar        1 N44      -0.0211
     15 C15        -7.2231   44.4986    3.5121 C.ar        1 N44       0.0219
     16 C16       -11.0057   44.2018    0.5126 C.ar        1 N44      -0.0032
     17 C17       -12.7416   44.1415   -1.7335 C.ar        1 N44       0.1200
     18 C18       -13.1487   44.7499   -0.5538 C.ar        1 N44       0.1327
     19 C19        -6.9669   45.9171   -0.8369 C.2         1 N44      -0.1125
     20 C20        -7.5372   44.7030   -0.7300 C.2         1 N44      -0.0447
     21 C21        -5.1390   45.8371    3.3824 C.2         1 N44       0.2021
     22 C22       -12.8586   45.3766    1.7703 C.2         1 N44       0.0515
     23 C23       -14.6692   45.0346   -2.0782 C.3         1 N44       0.1864
     24 C24        -3.2679   46.7712    2.1035 C.3         1 N44       0.0638
     25 C25        -8.0582   45.4051    2.6481 C.3         1 N44       0.0086
     26 C26       -10.0462   44.1220    1.6700 C.3         1 N44       0.0003
     27 C27        -7.7480   44.0384    0.5469 C.3         1 N44      -0.0011
     28 N28        -4.1463   45.7170    2.5101 N.am        1 N44      -0.2760
     29 N29        -8.7179   44.8057    1.4274 N.4         1 N44       0.2715
     30 O30       -12.1510   46.2706    2.4997 O.co2       1 N44      -0.5668
     31 O31        -5.4154   46.9102    3.9021 O.2         1 N44      -0.3884
     32 O32       -14.1721   45.2323    2.0781 O.co2       1 N44      -0.5668
     33 O33       -13.6940   44.1713   -2.6905 O.3         1 N44      -0.2947
     34 O34       -14.4017   45.2385   -0.6818 O.3         1 N44      -0.2890
     35 H1         -0.4024   45.2995   -2.1593 H           1 N44       0.0559
     36 H2         -5.2293   41.9411    5.6277 H           1 N44       0.0572
     37 H3         -1.5915   47.4146   -2.1713 H           1 N44       0.0599
     38 H4         -0.4837   43.8720   -0.1954 H           1 N44       0.0599
     39 H5         -7.5995   41.6042    5.2244 H           1 N44       0.0635
     40 H6         -4.1221   43.8886    4.7607 H           1 N44       0.0651
     41 H7         -2.8893   48.0917   -0.2557 H           1 N44       0.0557
     42 H8         -1.7540   44.5447    1.7433 H           1 N44       0.0557
     43 H9         -8.8316   43.1700    3.9211 H           1 N44       0.0570
     44 H10        -9.7396   43.0575   -0.7685 H           1 N44       0.0445
     45 H11       -11.1964   43.0374   -2.6692 H           1 N44       0.0514
     46 H12        -6.8047   46.3120   -1.7374 H           1 N44       0.0292
     47 H13        -6.6829   46.4236   -0.0310 H           1 N44       0.0292
     48 H14        -7.7746   44.2231   -1.5700 H           1 N44       0.0725
     49 H15       -15.6607   44.5906   -2.1927 H           1 N44       0.0973
     50 H16       -14.6679   46.0005   -2.5900 H           1 N44       0.0973
     51 H17        -3.8628   47.6617    1.8793 H           1 N44       0.0683
     52 H18        -2.5930   47.0174    2.9289 H           1 N44       0.0683
     53 H19        -7.4592   46.2366    2.2732 H           1 N44       0.0995
     54 H20        -8.8104   45.8758    3.2917 H           1 N44       0.0995
     55 H21        -9.8950   43.0692    1.9362 H           1 N44       0.0966
     56 H22       -10.5244   44.5545    2.5589 H           1 N44       0.0966
     57 H23        -6.7601   43.9116    1.0084 H           1 N44       0.0998
     58 H24        -8.1112   43.0206    0.3600 H           1 N44       0.0998
     59 H25        -3.9971   44.8376    2.1282 H           1 N44       0.1869
     60 H26        -8.9859   45.6349    0.8805 H           1 N44       0.2082
@<TRIPOS>BOND
     1     3     1  ar
     2     4     1  ar
     3     5     2  ar
     4     6     2  ar
     5     7     3  ar
     6     8     4  ar
     7     9     5  ar
     8    12     6  ar
     9    14     7  ar
    10    14     8  ar
    11    15     9  ar
    12    10    11  ar
    13    16    10  ar
    14    11    17  ar
    15    15    12  ar
    16    12    21   1
    17    16    13  ar
    18    13    18  ar
    19    13    22   1
    20    24    14   1
    21    25    15   1
    22    26    16   1
    23    18    17  ar
    24    17    33   1
    25    18    34   1
    26    20    19   2
    27    27    20   1
    28    21    28  am
    29    21    31   2
    30    22    30  ar
    31    22    32  ar
    32    23    33   1
    33    34    23   1
    34    28    24   1
    35    29    25   1
    36    29    26   1
    37    27    29   1
    38     1    35   1
    39     2    36   1
    40     3    37   1
    41     4    38   1
    42     5    39   1
    43     6    40   1
    44     7    41   1
    45     8    42   1
    46     9    43   1
    47    10    44   1
    48    11    45   1
    49    19    46   1
    50    19    47   1
    51    20    48   1
    52    23    49   1
    53    23    50   1
    54    24    51   1
    55    24    52   1
    56    25    53   1
    57    25    54   1
    58    26    55   1
    59    26    56   1
    60    27    57   1
    61    27    58   1
    62    28    59   1
    63    29    60   1
@<TRIPOS>SUBSTRUCTURE
     1  N44      1

