@<TRIPOS>MOLECULE
3zsx_ligand_072
    60    63
SMALL
GAST_HUCK
****
This file was generated by PARSER (from files_GN.cpp)

@<TRIPOS>ATOM
      1 C1        -21.4793   45.4014    0.6643 C.ar        1 N44      -0.0687
      2 C2        -17.0703   45.9199   -5.6102 C.ar        1 N44      -0.0630
      3 C3        -20.4343   45.2159   -0.2618 C.ar        1 N44      -0.0685
      4 C4        -22.1452   46.6388    0.7292 C.ar        1 N44      -0.0685
      5 C5        -16.0004   46.5561   -6.2507 C.ar        1 N44      -0.0640
      6 C6        -17.8042   46.6052   -4.6308 C.ar        1 N44      -0.0483
      7 C7        -20.0659   46.2677   -1.1223 C.ar        1 N44      -0.0584
      8 C8        -21.7723   47.6851   -0.1364 C.ar        1 N44      -0.0584
      9 C9        -15.6736   47.8780   -5.9110 C.ar        1 N44      -0.0493
     10 C10       -14.7802   53.4568   -5.9053 C.ar        1 N44      -0.0712
     11 C11       -13.5579   54.0297   -5.5188 C.ar        1 N44      -0.0449
     12 C12       -17.4907   47.9425   -4.2553 C.ar        1 N44       0.0564
     13 C13       -13.6273   51.4518   -6.7355 C.ar        1 N44       0.0376
     14 C14       -20.7361   47.5156   -1.0865 C.ar        1 N44      -0.0211
     15 C15       -16.3966   48.5926   -4.9193 C.ar        1 N44       0.0219
     16 C16       -14.8552   52.1509   -6.4645 C.ar        1 N44      -0.0032
     17 C17       -12.3795   53.3057   -5.7292 C.ar        1 N44       0.1200
     18 C18       -12.4089   52.0636   -6.3409 C.ar        1 N44       0.1327
     19 C19       -19.6651   53.3741   -4.7644 C.2         1 N44      -0.1125
     20 C20       -18.8468   52.4890   -5.3436 C.2         1 N44      -0.0447
     21 C21       -18.2367   48.5178   -3.2173 C.2         1 N44       0.2021
     22 C22       -13.5566   50.1832   -7.3575 C.2         1 N44       0.0515
     23 C23       -10.3447   52.6055   -5.8736 C.3         1 N44       0.1864
     24 C24       -20.3732   48.6544   -1.9791 C.3         1 N44       0.0638
     25 C25       -16.0124   50.0240   -4.6932 C.3         1 N44       0.0086
     26 C26       -16.2372   51.5799   -6.6690 C.3         1 N44       0.0003
     27 C27       -17.7639   51.8383   -4.6226 C.3         1 N44      -0.0011
     28 N28       -19.5409   48.2918   -3.0903 N.am        1 N44      -0.2760
     29 N29       -16.9176   50.9413   -5.4798 N.4         1 N44       0.2715
     30 O30       -12.4304   49.4327   -7.3408 O.co2       1 N44      -0.5668
     31 O31       -17.6414   49.0899   -2.3156 O.2         1 N44      -0.3884
     32 O32       -14.5073   49.7998   -8.2393 O.co2       1 N44      -0.5668
     33 O33       -11.1354   53.7169   -5.4179 O.3         1 N44      -0.2947
     34 O34       -11.1530   51.5892   -6.5029 O.3         1 N44      -0.2890
     35 H1        -21.7523   44.6367    1.2869 H           1 N44       0.0559
     36 H2        -17.3115   44.9521   -5.8503 H           1 N44       0.0572
     37 H3        -19.9450   44.3184   -0.3055 H           1 N44       0.0599
     38 H4        -22.9041   46.7719    1.4047 H           1 N44       0.0599
     39 H5        -15.4554   46.0611   -6.9606 H           1 N44       0.0635
     40 H6        -18.5570   46.0912   -4.1669 H           1 N44       0.0651
     41 H7        -19.2943   46.1023   -1.7692 H           1 N44       0.0557
     42 H8        -22.2716   48.5767   -0.0684 H           1 N44       0.0557
     43 H9        -14.9002   48.3193   -6.4137 H           1 N44       0.0570
     44 H10       -15.6268   54.0125   -5.7671 H           1 N44       0.0445
     45 H11       -13.5218   54.9565   -5.0892 H           1 N44       0.0514
     46 H12       -20.4151   53.7690   -5.2783 H           1 N44       0.0292
     47 H13       -19.5496   53.6311   -3.8147 H           1 N44       0.0292
     48 H14       -19.0242   52.2337   -6.2883 H           1 N44       0.0725
     49 H15        -9.8171   52.1695   -5.0214 H           1 N44       0.0973
     50 H16        -9.5994   52.9706   -6.5844 H           1 N44       0.0973
     51 H17       -19.9141   49.4344   -1.3693 H           1 N44       0.0683
     52 H18       -21.2820   49.0794   -2.4080 H           1 N44       0.0683
     53 H19       -14.9690   50.1796   -4.9704 H           1 N44       0.0995
     54 H20       -16.0088   50.2453   -3.6262 H           1 N44       0.0995
     55 H21       -16.2332   50.8005   -7.4260 H           1 N44       0.0966
     56 H22       -16.8668   52.3643   -7.0972 H           1 N44       0.0966
     57 H23       -18.2460   51.2440   -3.8430 H           1 N44       0.0998
     58 H24       -17.1433   52.5754   -4.1164 H           1 N44       0.0998
     59 H25       -19.9698   47.7825   -3.7954 H           1 N44       0.1869
     60 H26       -17.6089   50.3145   -5.9029 H           1 N44       0.2082
@<TRIPOS>BOND
     1     3     1  ar
     2     4     1  ar
     3     5     2  ar
     4     6     2  ar
     5     7     3  ar
     6     8     4  ar
     7     9     5  ar
     8    12     6  ar
     9    14     7  ar
    10    14     8  ar
    11    15     9  ar
    12    10    11  ar
    13    16    10  ar
    14    11    17  ar
    15    15    12  ar
    16    12    21   1
    17    16    13  ar
    18    13    18  ar
    19    13    22   1
    20    24    14   1
    21    25    15   1
    22    26    16   1
    23    18    17  ar
    24    17    33   1
    25    18    34   1
    26    20    19   2
    27    27    20   1
    28    21    28  am
    29    21    31   2
    30    22    30  ar
    31    22    32  ar
    32    23    33   1
    33    34    23   1
    34    28    24   1
    35    29    25   1
    36    29    26   1
    37    27    29   1
    38     1    35   1
    39     2    36   1
    40     3    37   1
    41     4    38   1
    42     5    39   1
    43     6    40   1
    44     7    41   1
    45     8    42   1
    46     9    43   1
    47    10    44   1
    48    11    45   1
    49    19    46   1
    50    19    47   1
    51    20    48   1
    52    23    49   1
    53    23    50   1
    54    24    51   1
    55    24    52   1
    56    25    53   1
    57    25    54   1
    58    26    55   1
    59    26    56   1
    60    27    57   1
    61    27    58   1
    62    28    59   1
    63    29    60   1
@<TRIPOS>SUBSTRUCTURE
     1  N44      1

