@<TRIPOS>MOLECULE
3zsx_ligand_022
    60    63
SMALL
GAST_HUCK
****
This file was generated by PARSER (from files_GN.cpp)

@<TRIPOS>ATOM
      1 C1        -23.3352   43.8029   -2.3285 C.ar        1 N44      -0.0687
      2 C2        -16.8973   47.1831   -6.3997 C.ar        1 N44      -0.0630
      3 C3        -22.6801   43.4265   -1.1448 C.ar        1 N44      -0.0685
      4 C4        -22.7482   44.7517   -3.1827 C.ar        1 N44      -0.0685
      5 C5        -15.6668   46.5150   -6.3900 C.ar        1 N44      -0.0640
      6 C6        -17.6738   47.2274   -5.2306 C.ar        1 N44      -0.0483
      7 C7        -21.4311   43.9885   -0.8185 C.ar        1 N44      -0.0584
      8 C8        -21.5091   45.3295   -2.8496 C.ar        1 N44      -0.0584
      9 C9        -15.2153   45.8958   -5.2129 C.ar        1 N44      -0.0493
     10 C10       -11.1299   46.8651   -2.1168 C.ar        1 N44      -0.0712
     11 C11       -10.1183   47.7412   -1.6904 C.ar        1 N44      -0.0449
     12 C12       -17.2375   46.6009   -4.0356 C.ar        1 N44       0.0564
     13 C13       -11.7713   46.3885    0.2071 C.ar        1 N44       0.0376
     14 C14       -20.8253   44.9449   -1.6702 C.ar        1 N44      -0.0211
     15 C15       -15.9788   45.9202   -4.0201 C.ar        1 N44       0.0219
     16 C16       -11.9782   46.1878   -1.1998 C.ar        1 N44      -0.0032
     17 C17        -9.9426   47.9411   -0.3164 C.ar        1 N44       0.1200
     18 C18       -10.7386   47.2761    0.6036 C.ar        1 N44       0.1327
     19 C19       -14.8782   49.3801   -0.8315 C.2         1 N44      -0.1125
     20 C20       -14.3374   48.1670   -0.6273 C.2         1 N44      -0.0447
     21 C21       -18.0740   46.7078   -2.9291 C.2         1 N44       0.2021
     22 C22       -12.5789   45.8280    1.2319 C.2         1 N44       0.0515
     23 C23        -9.2766   48.5102    1.6553 C.3         1 N44       0.1864
     24 C24       -19.5368   45.5816   -1.2940 C.3         1 N44       0.0638
     25 C25       -15.3667   45.2532   -2.8288 C.3         1 N44       0.0086
     26 C26       -13.0959   45.3948   -1.8038 C.3         1 N44       0.0003
     27 C27       -14.9836   46.9108   -0.9859 C.3         1 N44      -0.0011
     28 N28       -18.6121   45.6192   -2.3888 N.am        1 N44      -0.2760
     29 N29       -14.3590   46.1525   -2.1349 N.4         1 N44       0.2715
     30 O30       -13.2063   44.6371    1.1322 O.co2       1 N44      -0.5668
     31 O31       -18.3940   47.8243   -2.5553 O.2         1 N44      -0.3884
     32 O32       -12.7936   46.4938    2.3899 O.co2       1 N44      -0.5668
     33 O33        -9.0497   48.7676    0.2608 O.3         1 N44      -0.2947
     34 O34       -10.3954   47.6281    1.8626 O.3         1 N44      -0.2890
     35 H1        -24.2393   43.3936   -2.5656 H           1 N44       0.0559
     36 H2        -17.2291   47.6315   -7.2567 H           1 N44       0.0572
     37 H3        -23.1131   42.7471   -0.5146 H           1 N44       0.0599
     38 H4        -23.2226   45.0288   -4.0441 H           1 N44       0.0599
     39 H5        -15.0975   46.4808   -7.2394 H           1 N44       0.0635
     40 H6        -18.5734   47.7148   -5.2697 H           1 N44       0.0651
     41 H7        -20.9758   43.7069    0.0535 H           1 N44       0.0557
     42 H8        -21.1043   46.0314   -3.4750 H           1 N44       0.0557
     43 H9        -14.3188   45.4120   -5.2368 H           1 N44       0.0570
     44 H10       -11.2470   46.7360   -3.1224 H           1 N44       0.0445
     45 H11        -9.5254   48.2346   -2.3652 H           1 N44       0.0514
     46 H12       -14.4076   50.1967   -0.5142 H           1 N44       0.0292
     47 H13       -15.7509   49.4873   -1.2929 H           1 N44       0.0292
     48 H14       -13.4675   48.1285   -0.1465 H           1 N44       0.0725
     49 H15        -9.4654   49.4550    2.1712 H           1 N44       0.0973
     50 H16        -8.3816   48.0545    2.0859 H           1 N44       0.0973
     51 H17       -19.0453   45.0290   -0.4931 H           1 N44       0.0683
     52 H18       -19.7616   46.5809   -0.9064 H           1 N44       0.0683
     53 H19       -14.9126   44.3216   -3.1843 H           1 N44       0.0995
     54 H20       -16.1211   44.9090   -2.1217 H           1 N44       0.0995
     55 H21       -13.3566   44.5329   -1.1934 H           1 N44       0.0966
     56 H22       -12.7072   44.9630   -2.7292 H           1 N44       0.0966
     57 H23       -16.0188   47.1431   -1.2399 H           1 N44       0.0998
     58 H24       -15.0350   46.2764   -0.0984 H           1 N44       0.0998
     59 H25       -18.3682   44.7650   -2.7802 H           1 N44       0.1869
     60 H26       -14.0899   46.8639   -2.8168 H           1 N44       0.2082
@<TRIPOS>BOND
     1     3     1  ar
     2     4     1  ar
     3     5     2  ar
     4     6     2  ar
     5     7     3  ar
     6     8     4  ar
     7     9     5  ar
     8    12     6  ar
     9    14     7  ar
    10    14     8  ar
    11    15     9  ar
    12    10    11  ar
    13    16    10  ar
    14    11    17  ar
    15    15    12  ar
    16    12    21   1
    17    16    13  ar
    18    13    18  ar
    19    13    22   1
    20    24    14   1
    21    25    15   1
    22    26    16   1
    23    18    17  ar
    24    17    33   1
    25    18    34   1
    26    20    19   2
    27    27    20   1
    28    21    28  am
    29    21    31   2
    30    22    30  ar
    31    22    32  ar
    32    23    33   1
    33    34    23   1
    34    28    24   1
    35    29    25   1
    36    29    26   1
    37    27    29   1
    38     1    35   1
    39     2    36   1
    40     3    37   1
    41     4    38   1
    42     5    39   1
    43     6    40   1
    44     7    41   1
    45     8    42   1
    46     9    43   1
    47    10    44   1
    48    11    45   1
    49    19    46   1
    50    19    47   1
    51    20    48   1
    52    23    49   1
    53    23    50   1
    54    24    51   1
    55    24    52   1
    56    25    53   1
    57    25    54   1
    58    26    55   1
    59    26    56   1
    60    27    57   1
    61    27    58   1
    62    28    59   1
    63    29    60   1
@<TRIPOS>SUBSTRUCTURE
     1  N44      1

