@<TRIPOS>MOLECULE
3zsx_ligand_016
    60    63
SMALL
GAST_HUCK
****
This file was generated by PARSER (from files_GN.cpp)

@<TRIPOS>ATOM
      1 C1         -5.3969   49.6377   -2.1654 C.ar        1 N44      -0.0687
      2 C2         -9.3598   42.4153   -1.3645 C.ar        1 N44      -0.0630
      3 C3         -6.6288   49.3857   -1.5310 C.ar        1 N44      -0.0685
      4 C4         -4.2358   48.9838   -1.7212 C.ar        1 N44      -0.0685
      5 C5        -10.3351   42.3881   -0.3587 C.ar        1 N44      -0.0640
      6 C6         -8.3486   43.3875   -1.3282 C.ar        1 N44      -0.0483
      7 C7         -6.6969   48.4639   -0.4720 C.ar        1 N44      -0.0584
      8 C8         -4.3087   48.0445   -0.6759 C.ar        1 N44      -0.0584
      9 C9        -10.3067   43.3427    0.6705 C.ar        1 N44      -0.0493
     10 C10       -11.3539   45.9718   -1.8528 C.ar        1 N44      -0.0712
     11 C11       -12.1777   45.2813   -2.7605 C.ar        1 N44      -0.0449
     12 C12        -8.3017   44.3668   -0.3004 C.ar        1 N44       0.0564
     13 C13       -13.0588   45.7731   -0.0951 C.ar        1 N44       0.0376
     14 C14        -5.5458   47.7482   -0.0589 C.ar        1 N44      -0.0211
     15 C15        -9.3289   44.3679    0.7030 C.ar        1 N44       0.0219
     16 C16       -11.7608   46.2151   -0.5107 C.ar        1 N44      -0.0032
     17 C17       -13.4260   44.8271   -2.3266 C.ar        1 N44       0.1200
     18 C18       -13.8556   45.0645   -1.0310 C.ar        1 N44       0.1327
     19 C19       -10.7826   47.3123    5.0607 C.2         1 N44      -0.1125
     20 C20        -9.9049   47.2621    4.0530 C.2         1 N44      -0.0447
     21 C21        -7.2753   45.3128   -0.3560 C.2         1 N44       0.2021
     22 C22       -13.5998   46.0130    1.1932 C.2         1 N44       0.0515
     23 C23       -15.4870   44.2224   -2.1893 C.3         1 N44       0.1864
     24 C24        -5.6471   46.6838    0.9794 C.3         1 N44       0.0638
     25 C25        -9.4568   45.3769    1.8073 C.3         1 N44       0.0086
     26 C26       -10.8169   46.9886    0.3591 C.3         1 N44       0.0003
     27 C27       -10.2461   47.5914    2.6780 C.3         1 N44      -0.0011
     28 N28        -6.5192   45.5695    0.7065 N.am        1 N44      -0.2760
     29 N29       -10.5359   46.4362    1.7376 N.4         1 N44       0.2715
     30 O30       -13.1806   47.0463    1.9551 O.co2       1 N44      -0.5668
     31 O31        -7.0612   45.8754   -1.4231 O.2         1 N44      -0.3884
     32 O32       -14.6395   45.2788    1.6698 O.co2       1 N44      -0.5668
     33 O33       -14.3434   44.1679   -3.0607 O.3         1 N44      -0.2947
     34 O34       -15.0920   44.5473   -0.8448 O.3         1 N44      -0.2890
     35 H1         -5.3462   50.3115   -2.9347 H           1 N44       0.0559
     36 H2         -9.3717   41.7101   -2.1095 H           1 N44       0.0572
     37 H3         -7.4732   49.8693   -1.8520 H           1 N44       0.0599
     38 H4         -3.3342   49.1967   -2.1459 H           1 N44       0.0599
     39 H5        -11.0642   41.6727   -0.3728 H           1 N44       0.0635
     40 H6         -7.6220   43.3496   -2.0534 H           1 N44       0.0651
     41 H7         -7.6008   48.2906   -0.0266 H           1 N44       0.0557
     42 H8         -3.4557   47.5624   -0.3880 H           1 N44       0.0557
     43 H9        -11.0298   43.2952    1.3918 H           1 N44       0.0570
     44 H10       -10.4499   46.3075   -2.1940 H           1 N44       0.0445
     45 H11       -11.8741   45.1252   -3.7248 H           1 N44       0.0514
     46 H12       -10.4958   47.0917    5.9849 H           1 N44       0.0292
     47 H13       -11.7194   47.5959    4.9065 H           1 N44       0.0292
     48 H14        -8.9630   47.0159    4.2651 H           1 N44       0.0725
     49 H15       -15.9988   43.2553   -2.1977 H           1 N44       0.0973
     50 H16       -16.1846   44.9857   -2.5539 H           1 N44       0.0973
     51 H17        -6.0063   47.1593    1.8942 H           1 N44       0.0683
     52 H18        -4.6632   46.2752    1.2203 H           1 N44       0.0683
     53 H19        -8.5200   45.8986    1.9549 H           1 N44       0.0995
     54 H20        -9.6201   44.8020    2.7265 H           1 N44       0.0995
     55 H21       -11.2707   47.9787    0.4156 H           1 N44       0.0966
     56 H22        -9.8496   47.1428   -0.1337 H           1 N44       0.0966
     57 H23        -9.4135   48.1763    2.2652 H           1 N44       0.0998
     58 H24       -11.1090   48.2597    2.7159 H           1 N44       0.0998
     59 H25        -6.6491   44.9759    1.4622 H           1 N44       0.1869
     60 H26       -11.3929   45.9893    2.0677 H           1 N44       0.2082
@<TRIPOS>BOND
     1     3     1  ar
     2     4     1  ar
     3     5     2  ar
     4     6     2  ar
     5     7     3  ar
     6     8     4  ar
     7     9     5  ar
     8    12     6  ar
     9    14     7  ar
    10    14     8  ar
    11    15     9  ar
    12    10    11  ar
    13    16    10  ar
    14    11    17  ar
    15    15    12  ar
    16    12    21   1
    17    16    13  ar
    18    13    18  ar
    19    13    22   1
    20    24    14   1
    21    25    15   1
    22    26    16   1
    23    18    17  ar
    24    17    33   1
    25    18    34   1
    26    20    19   2
    27    27    20   1
    28    21    28  am
    29    21    31   2
    30    22    30  ar
    31    22    32  ar
    32    23    33   1
    33    34    23   1
    34    28    24   1
    35    29    25   1
    36    29    26   1
    37    27    29   1
    38     1    35   1
    39     2    36   1
    40     3    37   1
    41     4    38   1
    42     5    39   1
    43     6    40   1
    44     7    41   1
    45     8    42   1
    46     9    43   1
    47    10    44   1
    48    11    45   1
    49    19    46   1
    50    19    47   1
    51    20    48   1
    52    23    49   1
    53    23    50   1
    54    24    51   1
    55    24    52   1
    56    25    53   1
    57    25    54   1
    58    26    55   1
    59    26    56   1
    60    27    57   1
    61    27    58   1
    62    28    59   1
    63    29    60   1
@<TRIPOS>SUBSTRUCTURE
     1  N44      1

