@<TRIPOS>MOLECULE
3zsx_ligand_033
    60    63
SMALL
GAST_HUCK
****
This file was generated by PARSER (from files_GN.cpp)

@<TRIPOS>ATOM
      1 C1        -16.1768   44.7048   -1.0448 C.ar        1 N44      -0.0687
      2 C2        -15.6643   49.8431   -7.6001 C.ar        1 N44      -0.0630
      3 C3        -15.7666   45.8486   -1.7519 C.ar        1 N44      -0.0685
      4 C4        -16.4911   43.5242   -1.7421 C.ar        1 N44      -0.0685
      5 C5        -16.8126   50.5743   -7.9206 C.ar        1 N44      -0.0640
      6 C6        -15.7793   48.6181   -6.9263 C.ar        1 N44      -0.0483
      7 C7        -15.7110   45.8219   -3.1614 C.ar        1 N44      -0.0584
      8 C8        -16.4436   43.5043   -3.1447 C.ar        1 N44      -0.0584
      9 C9        -18.0749   50.0665   -7.5778 C.ar        1 N44      -0.0493
     10 C10       -21.0430   49.5837   -9.7922 C.ar        1 N44      -0.0712
     11 C11       -20.6470   50.7063  -10.5428 C.ar        1 N44      -0.0449
     12 C12       -17.0448   48.0636   -6.5830 C.ar        1 N44       0.0564
     13 C13       -18.9343   48.4495  -10.3243 C.ar        1 N44       0.0376
     14 C14       -16.0863   44.6615   -3.8836 C.ar        1 N44      -0.0211
     15 C15       -18.2192   48.8081   -6.9381 C.ar        1 N44       0.0219
     16 C16       -20.2008   48.4435   -9.6615 C.ar        1 N44      -0.0032
     17 C17       -19.3987   50.6881  -11.1733 C.ar        1 N44       0.1200
     18 C18       -18.5685   49.5825  -11.0817 C.ar        1 N44       0.1327
     19 C19       -22.4363   45.4543   -5.1925 C.2         1 N44      -0.1125
     20 C20       -21.8497   46.2698   -6.0810 C.2         1 N44      -0.0447
     21 C21       -17.0643   46.8711   -5.8407 C.2         1 N44       0.2021
     22 C22       -18.0362   47.3670  -10.2562 C.2         1 N44       0.0515
     23 C23       -17.6730   51.0438  -12.4124 C.3         1 N44       0.1864
     24 C24       -16.1289   44.6294   -5.3748 C.3         1 N44       0.0638
     25 C25       -19.6177   48.3114   -6.7066 C.3         1 N44       0.0086
     26 C26       -20.6766   47.3033   -8.8156 C.3         1 N44       0.0003
     27 C27       -20.5682   45.9611   -6.7121 C.3         1 N44      -0.0011
     28 N28       -16.1810   45.8907   -6.0578 N.am        1 N44      -0.2760
     29 N29       -19.9398   47.0732   -7.5171 N.4         1 N44       0.2715
     30 O30       -16.8416   47.5712   -9.6563 O.co2       1 N44      -0.5668
     31 O31       -17.8305   46.7708   -4.8917 O.2         1 N44      -0.3884
     32 O32       -18.0214   46.5127  -11.3046 O.co2       1 N44      -0.5668
     33 O33       -18.8600   51.6762  -11.9059 O.3         1 N44      -0.2947
     34 O34       -17.4234   49.7821  -11.7685 O.3         1 N44      -0.2890
     35 H1        -16.2363   44.7343   -0.0262 H           1 N44       0.0559
     36 H2        -14.7408   50.2161   -7.8323 H           1 N44       0.0572
     37 H3        -15.5205   46.7038   -1.2472 H           1 N44       0.0599
     38 H4        -16.7706   42.6860   -1.2221 H           1 N44       0.0599
     39 H5        -16.7350   51.4735   -8.3935 H           1 N44       0.0635
     40 H6        -14.9096   48.1393   -6.6828 H           1 N44       0.0651
     41 H7        -15.4110   46.6650   -3.6559 H           1 N44       0.0557
     42 H8        -16.6968   42.6396   -3.6333 H           1 N44       0.0557
     43 H9        -18.8944   50.6254   -7.8259 H           1 N44       0.0570
     44 H10       -21.9518   49.6160   -9.3255 H           1 N44       0.0445
     45 H11       -21.2524   51.5249  -10.6120 H           1 N44       0.0514
     46 H12       -23.3054   45.7091   -4.7797 H           1 N44       0.0292
     47 H13       -22.0167   44.5932   -4.9282 H           1 N44       0.0292
     48 H14       -22.3139   47.1253   -6.3115 H           1 N44       0.0725
     49 H15       -16.8182   51.7038  -12.2546 H           1 N44       0.0973
     50 H16       -17.7918   50.8835  -13.4873 H           1 N44       0.0973
     51 H17       -17.0023   44.0558   -5.6953 H           1 N44       0.0683
     52 H18       -15.2429   44.0915   -5.7194 H           1 N44       0.0683
     53 H19       -20.3672   49.0823   -6.9213 H           1 N44       0.0995
     54 H20       -19.7213   48.1405   -5.6343 H           1 N44       0.0995
     55 H21       -20.5878   46.4002   -9.4291 H           1 N44       0.0966
     56 H22       -21.7454   47.4174   -8.5936 H           1 N44       0.0966
     57 H23       -20.7053   45.0786   -7.3501 H           1 N44       0.0998
     58 H24       -19.8661   45.6682   -5.9280 H           1 N44       0.0998
     59 H25       -15.5391   46.0146   -6.7780 H           1 N44       0.1869
     60 H26       -19.0405   46.6888   -7.8018 H           1 N44       0.2082
@<TRIPOS>BOND
     1     3     1  ar
     2     4     1  ar
     3     5     2  ar
     4     6     2  ar
     5     7     3  ar
     6     8     4  ar
     7     9     5  ar
     8    12     6  ar
     9    14     7  ar
    10    14     8  ar
    11    15     9  ar
    12    10    11  ar
    13    16    10  ar
    14    11    17  ar
    15    15    12  ar
    16    12    21   1
    17    16    13  ar
    18    13    18  ar
    19    13    22   1
    20    24    14   1
    21    25    15   1
    22    26    16   1
    23    18    17  ar
    24    17    33   1
    25    18    34   1
    26    20    19   2
    27    27    20   1
    28    21    28  am
    29    21    31   2
    30    22    30  ar
    31    22    32  ar
    32    23    33   1
    33    34    23   1
    34    28    24   1
    35    29    25   1
    36    29    26   1
    37    27    29   1
    38     1    35   1
    39     2    36   1
    40     3    37   1
    41     4    38   1
    42     5    39   1
    43     6    40   1
    44     7    41   1
    45     8    42   1
    46     9    43   1
    47    10    44   1
    48    11    45   1
    49    19    46   1
    50    19    47   1
    51    20    48   1
    52    23    49   1
    53    23    50   1
    54    24    51   1
    55    24    52   1
    56    25    53   1
    57    25    54   1
    58    26    55   1
    59    26    56   1
    60    27    57   1
    61    27    58   1
    62    28    59   1
    63    29    60   1
@<TRIPOS>SUBSTRUCTURE
     1  N44      1

