@<TRIPOS>MOLECULE
3zsx_ligand_038
    60    63
SMALL
GAST_HUCK
****
This file was generated by PARSER (from files_GN.cpp)

@<TRIPOS>ATOM
      1 C1        -13.5024   50.4006    5.4747 C.ar        1 N44      -0.0687
      2 C2        -16.7087   51.2406   -1.4205 C.ar        1 N44      -0.0630
      3 C3        -12.7206   49.2951    5.0962 C.ar        1 N44      -0.0685
      4 C4        -13.7170   51.4520    4.5644 C.ar        1 N44      -0.0685
      5 C5        -16.9945   50.3280   -2.4436 C.ar        1 N44      -0.0640
      6 C6        -15.7352   50.9287   -0.4639 C.ar        1 N44      -0.0483
      7 C7        -12.1749   49.2285    3.8025 C.ar        1 N44      -0.0584
      8 C8        -13.1663   51.3870    3.2717 C.ar        1 N44      -0.0584
      9 C9        -16.3141   49.0963   -2.4991 C.ar        1 N44      -0.0493
     10 C10       -12.8927   44.0724   -2.0361 C.ar        1 N44      -0.0712
     11 C11       -11.4920   43.9656   -2.0570 C.ar        1 N44      -0.0449
     12 C12       -15.0826   49.6681   -0.4776 C.ar        1 N44       0.0564
     13 C13       -12.8155   45.1375    0.1802 C.ar        1 N44       0.0376
     14 C14       -12.4139   50.2609    2.8634 C.ar        1 N44      -0.0211
     15 C15       -15.4000   48.7001   -1.4874 C.ar        1 N44       0.0219
     16 C16       -13.5768   44.6812   -0.9478 C.ar        1 N44      -0.0032
     17 C17       -10.7604   44.4791   -0.9793 C.ar        1 N44       0.1200
     18 C18       -11.4029   45.0463    0.1095 C.ar        1 N44       0.1327
     19 C19       -15.8386   45.7565   -5.5013 C.2         1 N44      -0.1125
     20 C20       -15.3789   45.8071   -4.2428 C.2         1 N44      -0.0447
     21 C21       -14.1192   49.4641    0.4896 C.2         1 N44       0.2021
     22 C22       -13.3836   45.6916    1.3590 C.2         1 N44       0.0515
     23 C23        -9.2675   44.9342    0.5104 C.3         1 N44       0.1864
     24 C24       -11.9462   50.1423    1.4549 C.3         1 N44       0.0638
     25 C25       -14.7240   47.3593   -1.6102 C.3         1 N44       0.0086
     26 C26       -15.0623   44.8589   -1.0911 C.3         1 N44       0.0003
     27 C27       -16.2452   45.8747   -3.0798 C.3         1 N44      -0.0011
     28 N28       -13.0154   50.2041    0.5042 N.am        1 N44      -0.2760
     29 N29       -15.5937   46.1195   -1.7390 N.4         1 N44       0.2715
     30 O30       -12.7442   46.6368    2.0833 O.co2       1 N44      -0.5668
     31 O31       -14.3439   48.6231    1.3600 O.2         1 N44      -0.3884
     32 O32       -14.4210   45.1012    1.9901 O.co2       1 N44      -0.5668
     33 O33        -9.4202   44.4871   -0.8474 O.3         1 N44      -0.2947
     34 O34       -10.5016   45.4574    1.0282 O.3         1 N44      -0.2890
     35 H1        -13.9131   50.4411    6.4090 H           1 N44       0.0559
     36 H2        -17.1780   52.1506   -1.3959 H           1 N44       0.0572
     37 H3        -12.5578   48.5329    5.7590 H           1 N44       0.0599
     38 H4        -14.2838   52.2570    4.8390 H           1 N44       0.0599
     39 H5        -17.6775   50.5727   -3.1635 H           1 N44       0.0635
     40 H6        -15.5040   51.6357    0.2422 H           1 N44       0.0651
     41 H7        -11.6108   48.4155    3.5470 H           1 N44       0.0557
     42 H8        -13.3475   52.1524    2.6166 H           1 N44       0.0557
     43 H9        -16.4655   48.4975   -3.3155 H           1 N44       0.0570
     44 H10       -13.4145   43.6978   -2.8319 H           1 N44       0.0445
     45 H11       -11.0119   43.5307   -2.8487 H           1 N44       0.0514
     46 H12       -15.2015   45.7315   -6.2615 H           1 N44       0.0292
     47 H13       -16.8099   45.7759   -5.6921 H           1 N44       0.0292
     48 H14       -14.4000   45.8086   -4.1077 H           1 N44       0.0725
     49 H15        -8.4981   45.7078    0.5570 H           1 N44       0.0973
     50 H16        -8.9498   44.0935    1.1335 H           1 N44       0.0973
     51 H17       -11.3899   49.2144    1.2923 H           1 N44       0.0683
     52 H18       -11.2606   50.9683    1.2509 H           1 N44       0.0683
     53 H19       -14.0944   47.2359   -0.7368 H           1 N44       0.0995
     54 H20       -14.0183   47.4131   -2.4354 H           1 N44       0.0995
     55 H21       -15.5458   44.8418   -0.1217 H           1 N44       0.0966
     56 H22       -15.4462   43.9517   -1.5686 H           1 N44       0.0966
     57 H23       -16.8304   44.9556   -3.0686 H           1 N44       0.0998
     58 H24       -16.9888   46.6639   -3.2283 H           1 N44       0.0998
     59 H25       -12.9206   50.8578   -0.2075 H           1 N44       0.1869
     60 H26       -16.3880   46.3466   -1.1367 H           1 N44       0.2082
@<TRIPOS>BOND
     1     3     1  ar
     2     4     1  ar
     3     5     2  ar
     4     6     2  ar
     5     7     3  ar
     6     8     4  ar
     7     9     5  ar
     8    12     6  ar
     9    14     7  ar
    10    14     8  ar
    11    15     9  ar
    12    10    11  ar
    13    16    10  ar
    14    11    17  ar
    15    15    12  ar
    16    12    21   1
    17    16    13  ar
    18    13    18  ar
    19    13    22   1
    20    24    14   1
    21    25    15   1
    22    26    16   1
    23    18    17  ar
    24    17    33   1
    25    18    34   1
    26    20    19   2
    27    27    20   1
    28    21    28  am
    29    21    31   2
    30    22    30  ar
    31    22    32  ar
    32    23    33   1
    33    34    23   1
    34    28    24   1
    35    29    25   1
    36    29    26   1
    37    27    29   1
    38     1    35   1
    39     2    36   1
    40     3    37   1
    41     4    38   1
    42     5    39   1
    43     6    40   1
    44     7    41   1
    45     8    42   1
    46     9    43   1
    47    10    44   1
    48    11    45   1
    49    19    46   1
    50    19    47   1
    51    20    48   1
    52    23    49   1
    53    23    50   1
    54    24    51   1
    55    24    52   1
    56    25    53   1
    57    25    54   1
    58    26    55   1
    59    26    56   1
    60    27    57   1
    61    27    58   1
    62    28    59   1
    63    29    60   1
@<TRIPOS>SUBSTRUCTURE
     1  N44      1

