@<TRIPOS>MOLECULE
4de1_ligand_070
    34    37
SMALL
GAST_HUCK
****
This file was generated by PARSER (from files_GN.cpp)

@<TRIPOS>ATOM
      1 O14       -15.6352   58.2965    4.5924 O.2         1 MOL      -0.3730
      2 C13       -14.4933   58.4695    5.0039 C.2         1 MOL       0.2323
      3 C15       -13.4263   57.9116    4.2866 C.ar        1 MOL       0.0570
      4 C20       -12.1155   58.4594    4.3621 C.ar        1 MOL      -0.0265
      5 C19       -11.0604   57.8513    3.6635 C.ar        1 MOL       0.0384
      6 C23        -9.7054   58.1217    3.5646 C.2         1 MOL       0.1104
      7 N22        -9.1899   57.2134    2.7200 N.pl3       1 MOL      -0.2442
      8 N21       -10.1053   56.3900    2.2975 N.2         1 MOL      -0.3319
      9 C18       -11.2757   56.7414    2.8576 C.ar        1 MOL      -0.0092
     10 C17       -12.5566   56.1824    2.7375 C.ar        1 MOL      -0.0531
     11 C16       -13.6209   56.7685    3.4548 C.ar        1 MOL      -0.0414
     12 N12       -14.2950   59.2295    6.0832 N.am        1 MOL      -0.2325
     13 C8        -15.2340   59.8263    6.8806 C.ar        1 MOL       0.0706
     14 C7        -15.0114   61.1636    7.2813 C.ar        1 MOL      -0.0238
     15 C9        -16.3677   59.1423    7.3777 C.ar        1 MOL      -0.0372
     16 C10       -17.2763   59.7920    8.2285 C.ar        1 MOL      -0.0702
     17 C11       -17.0704   61.1335    8.5916 C.ar        1 MOL      -0.0591
     18 C6        -15.9366   61.8247    8.1224 C.ar        1 MOL       0.0268
     19 C2        -15.7356   63.1593    8.5062 C.2         1 MOL       0.1822
     20 N3        -16.2400   64.2564    7.9380 N.pl3       1 MOL      -0.1510
     21 N4        -15.8550   65.2434    8.6149 N.2         1 MOL      -0.0636
     22 N5        -15.1653   64.8611    9.5563 N.2         1 MOL      -0.1383
     23 N1        -15.0493   63.6001    9.5637 N.2         1 MOL      -0.2073
     24 H1        -11.9230   59.3077    4.8938 H           1 MOL       0.0680
     25 H2         -9.1926   58.8698    4.0352 H           1 MOL       0.1370
     26 H3         -8.2593   57.1891    2.4443 H           1 MOL       0.2935
     27 H4        -12.7112   55.3598    2.1525 H           1 MOL       0.0630
     28 H5        -14.5463   56.3391    3.3721 H           1 MOL       0.0669
     29 H6        -13.3708   59.4270    6.3234 H           1 MOL       0.2252
     30 H7        -14.1855   61.6678    6.9329 H           1 MOL       0.0543
     31 H8        -16.5119   58.1572    7.1573 H           1 MOL       0.0536
     32 H9        -18.0801   59.2806    8.5930 H           1 MOL       0.0588
     33 H10       -17.7446   61.5921    9.2077 H           1 MOL       0.0535
     34 H11       -16.8010   64.2925    7.1463 H           1 MOL       0.2708
@<TRIPOS>BOND
     1     1     2   2
     2     2     3   1
     3     2    12  am
     4     3     4  ar
     5     3    11  ar
     6     4     5  ar
     7     5     6   2
     8     5     9  ar
     9     6     7   1
    10     7     8   1
    11     8     9   2
    12     9    10  ar
    13    10    11  ar
    14    12    13   1
    15    13    14  ar
    16    13    15  ar
    17    14    18  ar
    18    15    16  ar
    19    16    17  ar
    20    17    18  ar
    21    18    19   1
    22    19    20   1
    23    19    23   2
    24    20    21   1
    25    21    22   2
    26    22    23   1
    27     4    24   1
    28     6    25   1
    29     7    26   1
    30    10    27   1
    31    11    28   1
    32    12    29   1
    33    14    30   1
    34    15    31   1
    35    16    32   1
    36    17    33   1
    37    20    34   1
@<TRIPOS>SUBSTRUCTURE
     1  MOL      2

