@<TRIPOS>MOLECULE
4de1_ligand_028
    34    37
SMALL
GAST_HUCK
****
This file was generated by PARSER (from files_GN.cpp)

@<TRIPOS>ATOM
      1 O14        -3.2607   49.3326   13.5625 O.2         1 MOL      -0.3730
      2 C13        -3.9067   49.4713   12.5195 C.2         1 MOL       0.2323
      3 C15        -5.2069   49.9987   12.5863 C.ar        1 MOL       0.0570
      4 C20        -5.5319   50.9874   13.5656 C.ar        1 MOL      -0.0265
      5 C19        -6.8059   51.5749   13.5689 C.ar        1 MOL       0.0384
      6 C23        -7.4247   52.5405   14.3598 C.2         1 MOL       0.1104
      7 N22        -8.6716   52.6724   13.9028 N.pl3       1 MOL      -0.2442
      8 N21        -8.9123   51.8772   12.8966 N.2         1 MOL      -0.3319
      9 C18        -7.7889   51.1830   12.6620 C.ar        1 MOL      -0.0092
     10 C17        -7.5178   50.1999   11.6929 C.ar        1 MOL      -0.0531
     11 C16        -6.2348   49.6120   11.6669 C.ar        1 MOL      -0.0414
     12 N12        -3.3658   49.1456   11.3425 N.am        1 MOL      -0.2325
     13 C8         -2.0535   48.8233   11.1067 C.ar        1 MOL       0.0706
     14 C7         -1.7439   47.6320   10.4245 C.ar        1 MOL      -0.0238
     15 C9         -1.0138   49.7464   11.3694 C.ar        1 MOL      -0.0372
     16 C10         0.2971   49.4870   10.9260 C.ar        1 MOL      -0.0702
     17 C11         0.5997   48.2790   10.2866 C.ar        1 MOL      -0.0591
     18 C6         -0.4214   47.3388   10.0047 C.ar        1 MOL       0.0268
     19 C2         -0.1046   46.1316    9.3362 C.2         1 MOL       0.1822
     20 N3         -0.3310   44.8751    9.7373 N.pl3       1 MOL      -0.1510
     21 N4          0.0526   44.0952    8.8271 N.2         1 MOL      -0.0636
     22 N5          0.4864   44.7482    7.8765 N.2         1 MOL      -0.1383
     23 N1          0.4243   45.9956    8.1071 N.2         1 MOL      -0.2073
     24 H1         -4.8578   51.2987   14.2602 H           1 MOL       0.0680
     25 H2         -7.0070   53.0535   15.1420 H           1 MOL       0.1370
     26 H3         -9.3398   53.2588   14.2899 H           1 MOL       0.2935
     27 H4         -8.2358   49.9167   11.0255 H           1 MOL       0.0630
     28 H5         -6.0599   48.8683   10.9808 H           1 MOL       0.0669
     29 H6         -3.9372   49.2128   10.5513 H           1 MOL       0.2252
     30 H7         -2.4957   46.9651   10.1846 H           1 MOL       0.0543
     31 H8         -1.2315   50.6307   11.8272 H           1 MOL       0.0536
     32 H9          1.0216   50.1876   11.1129 H           1 MOL       0.0588
     33 H10         1.5650   48.1269    9.9737 H           1 MOL       0.0535
     34 H11        -0.6939   44.6137   10.6008 H           1 MOL       0.2708
@<TRIPOS>BOND
     1     1     2   2
     2     2     3   1
     3     2    12  am
     4     3     4  ar
     5     3    11  ar
     6     4     5  ar
     7     5     6   2
     8     5     9  ar
     9     6     7   1
    10     7     8   1
    11     8     9   2
    12     9    10  ar
    13    10    11  ar
    14    12    13   1
    15    13    14  ar
    16    13    15  ar
    17    14    18  ar
    18    15    16  ar
    19    16    17  ar
    20    17    18  ar
    21    18    19   1
    22    19    20   1
    23    19    23   2
    24    20    21   1
    25    21    22   2
    26    22    23   1
    27     4    24   1
    28     6    25   1
    29     7    26   1
    30    10    27   1
    31    11    28   1
    32    12    29   1
    33    14    30   1
    34    15    31   1
    35    16    32   1
    36    17    33   1
    37    20    34   1
@<TRIPOS>SUBSTRUCTURE
     1  MOL      2

