@<TRIPOS>MOLECULE
4de1_ligand_035
    34    37
SMALL
GAST_HUCK
****
This file was generated by PARSER (from files_GN.cpp)

@<TRIPOS>ATOM
      1 O14        -7.0239   53.6196    7.9846 O.2         1 MOL      -0.3730
      2 C13        -6.2207   53.9427    7.1153 C.2         1 MOL       0.2323
      3 C15        -6.5219   55.0400    6.3027 C.ar        1 MOL       0.0570
      4 C20        -7.8593   55.2824    5.8728 C.ar        1 MOL      -0.0265
      5 C19        -8.1349   56.3953    5.0622 C.ar        1 MOL       0.0384
      6 C23        -9.2989   56.8993    4.5023 C.2         1 MOL       0.1104
      7 N22        -8.9539   58.0160    3.8371 N.pl3       1 MOL      -0.2442
      8 N21        -7.6797   58.2454    3.9294 N.2         1 MOL      -0.3319
      9 C18        -7.1296   57.2672    4.6676 C.ar        1 MOL      -0.0092
     10 C17        -5.8005   57.0612    5.0671 C.ar        1 MOL      -0.0531
     11 C16        -5.5111   55.9556    5.8922 C.ar        1 MOL      -0.0414
     12 N12        -5.0531   53.3204    6.9933 N.am        1 MOL      -0.2325
     13 C8         -4.4982   52.3061    7.7238 C.ar        1 MOL       0.0706
     14 C7         -5.2120   51.2088    8.2646 C.ar        1 MOL      -0.0238
     15 C9         -3.1024   52.3667    7.9276 C.ar        1 MOL      -0.0372
     16 C10        -2.4456   51.4005    8.7070 C.ar        1 MOL      -0.0702
     17 C11        -3.1783   50.3523    9.2925 C.ar        1 MOL      -0.0591
     18 C6         -4.5682   50.2353    9.0640 C.ar        1 MOL       0.0268
     19 C2         -5.3004   49.1636    9.6221 C.2         1 MOL       0.1822
     20 N3         -5.0912   48.5436   10.7842 N.pl3       1 MOL      -0.1510
     21 N4         -5.9716   47.6632   10.9296 N.2         1 MOL      -0.0636
     22 N5         -6.7181   47.6621    9.9465 N.2         1 MOL      -0.1383
     23 N1         -6.3787   48.5490    9.1170 N.2         1 MOL      -0.2073
     24 H1         -8.6254   54.6592    6.1369 H           1 MOL       0.0680
     25 H2        -10.2370   56.5111    4.5893 H           1 MOL       0.1370
     26 H3         -9.5712   58.5947    3.3671 H           1 MOL       0.2935
     27 H4         -5.0640   57.7149    4.7892 H           1 MOL       0.0630
     28 H5         -4.5451   55.8547    6.2114 H           1 MOL       0.0669
     29 H6         -4.4684   53.6798    6.3038 H           1 MOL       0.2252
     30 H7         -6.2112   51.1100    8.0727 H           1 MOL       0.0543
     31 H8         -2.5519   53.1292    7.5216 H           1 MOL       0.0536
     32 H9         -1.4356   51.4570    8.8525 H           1 MOL       0.0588
     33 H10        -2.6787   49.6620    9.8604 H           1 MOL       0.0535
     34 H11        -4.3981   48.7671   11.4288 H           1 MOL       0.2708
@<TRIPOS>BOND
     1     1     2   2
     2     2     3   1
     3     2    12  am
     4     3     4  ar
     5     3    11  ar
     6     4     5  ar
     7     5     6   2
     8     5     9  ar
     9     6     7   1
    10     7     8   1
    11     8     9   2
    12     9    10  ar
    13    10    11  ar
    14    12    13   1
    15    13    14  ar
    16    13    15  ar
    17    14    18  ar
    18    15    16  ar
    19    16    17  ar
    20    17    18  ar
    21    18    19   1
    22    19    20   1
    23    19    23   2
    24    20    21   1
    25    21    22   2
    26    22    23   1
    27     4    24   1
    28     6    25   1
    29     7    26   1
    30    10    27   1
    31    11    28   1
    32    12    29   1
    33    14    30   1
    34    15    31   1
    35    16    32   1
    36    17    33   1
    37    20    34   1
@<TRIPOS>SUBSTRUCTURE
     1  MOL      2

