@<TRIPOS>MOLECULE
4de1_ligand_088
    34    37
SMALL
GAST_HUCK
****
This file was generated by PARSER (from files_GN.cpp)

@<TRIPOS>ATOM
      1 O14        -6.5866   54.1020    9.7731 O.2         1 MOL      -0.3730
      2 C13        -6.3403   53.0903   10.4575 C.2         1 MOL       0.2323
      3 C15        -5.0989   52.9943   11.0898 C.ar        1 MOL       0.0570
      4 C20        -4.6253   54.0949   11.8661 C.ar        1 MOL      -0.0265
      5 C19        -3.4123   53.9831   12.5504 C.ar        1 MOL       0.0384
      6 C23        -2.7259   54.8364   13.3872 C.2         1 MOL       0.1104
      7 N22        -1.6048   54.1963   13.7556 N.pl3       1 MOL      -0.2442
      8 N21        -1.5448   53.0176   13.2174 N.2         1 MOL      -0.3319
      9 C18        -2.6399   52.8300   12.4801 C.ar        1 MOL      -0.0092
     10 C17        -3.0658   51.7314   11.7168 C.ar        1 MOL      -0.0531
     11 C16        -4.2986   51.8109   11.0394 C.ar        1 MOL      -0.0414
     12 N12        -7.2152   52.0857   10.5074 N.am        1 MOL      -0.2325
     13 C8         -8.4530   52.0258    9.9102 C.ar        1 MOL       0.0706
     14 C7         -9.4633   52.9875   10.1155 C.ar        1 MOL      -0.0238
     15 C9         -8.7090   50.9300    9.0475 C.ar        1 MOL      -0.0372
     16 C10        -9.9259   50.8420    8.3613 C.ar        1 MOL      -0.0702
     17 C11       -10.9154   51.8226    8.5382 C.ar        1 MOL      -0.0591
     18 C6        -10.7063   52.8993    9.4394 C.ar        1 MOL       0.0268
     19 C2        -11.6958   53.8780    9.6309 C.2         1 MOL       0.1822
     20 N3        -12.3155   54.6290    8.7165 N.pl3       1 MOL      -0.1510
     21 N4        -13.1143   55.4032    9.3071 N.2         1 MOL      -0.0636
     22 N5        -13.0969   55.1510   10.5216 N.2         1 MOL      -0.1383
     23 N1        -12.2444   54.2632   10.7931 N.2         1 MOL      -0.2073
     24 H1         -5.1744   54.9506   11.9514 H           1 MOL       0.0680
     25 H2         -2.9965   55.7723   13.6665 H           1 MOL       0.1370
     26 H3         -0.9293   54.5679   14.3370 H           1 MOL       0.2935
     27 H4         -2.4993   50.8899   11.6730 H           1 MOL       0.0630
     28 H5         -4.6097   51.0022   10.4862 H           1 MOL       0.0669
     29 H6         -6.9013   51.2781   10.9506 H           1 MOL       0.2252
     30 H7         -9.2915   53.7827   10.7340 H           1 MOL       0.0543
     31 H8         -7.9820   50.2294    8.8931 H           1 MOL       0.0536
     32 H9        -10.0822   50.0681    7.7096 H           1 MOL       0.0588
     33 H10       -11.7937   51.7358    8.0234 H           1 MOL       0.0535
     34 H11       -12.1129   54.6430    7.7610 H           1 MOL       0.2708
@<TRIPOS>BOND
     1     1     2   2
     2     2     3   1
     3     2    12  am
     4     3     4  ar
     5     3    11  ar
     6     4     5  ar
     7     5     6   2
     8     5     9  ar
     9     6     7   1
    10     7     8   1
    11     8     9   2
    12     9    10  ar
    13    10    11  ar
    14    12    13   1
    15    13    14  ar
    16    13    15  ar
    17    14    18  ar
    18    15    16  ar
    19    16    17  ar
    20    17    18  ar
    21    18    19   1
    22    19    20   1
    23    19    23   2
    24    20    21   1
    25    21    22   2
    26    22    23   1
    27     4    24   1
    28     6    25   1
    29     7    26   1
    30    10    27   1
    31    11    28   1
    32    12    29   1
    33    14    30   1
    34    15    31   1
    35    16    32   1
    36    17    33   1
    37    20    34   1
@<TRIPOS>SUBSTRUCTURE
     1  MOL      2

