@<TRIPOS>MOLECULE
4de1_ligand_085
    34    37
SMALL
GAST_HUCK
****
This file was generated by PARSER (from files_GN.cpp)

@<TRIPOS>ATOM
      1 O14        -7.9618   50.5337   12.2522 O.2         1 MOL      -0.3730
      2 C13        -6.7497   50.5573   12.0659 C.2         1 MOL       0.2323
      3 C15        -5.9794   51.5109   12.7200 C.ar        1 MOL       0.0570
      4 C20        -4.8243   52.0608   12.0997 C.ar        1 MOL      -0.0265
      5 C19        -4.0651   53.0206   12.7905 C.ar        1 MOL       0.0384
      6 C23        -2.9274   53.7452   12.4763 C.2         1 MOL       0.1104
      7 N22        -2.6438   54.5009   13.5513 N.pl3       1 MOL      -0.2442
      8 N21        -3.5099   54.3171   14.5014 N.2         1 MOL      -0.3319
      9 C18        -4.4110   53.4193   14.0766 C.ar        1 MOL      -0.0092
     10 C17        -5.5412   52.8949   14.7180 C.ar        1 MOL      -0.0531
     11 C16        -6.3301   51.9538   14.0272 C.ar        1 MOL      -0.0414
     12 N12        -6.1524   49.6120   11.3489 N.am        1 MOL      -0.2325
     13 C8         -6.7533   48.5637   10.7221 C.ar        1 MOL       0.0706
     14 C7         -6.2566   47.2696   10.9744 C.ar        1 MOL      -0.0238
     15 C9         -7.8332   48.7275    9.8275 C.ar        1 MOL      -0.0372
     16 C10        -8.3992   47.6094    9.1908 C.ar        1 MOL      -0.0702
     17 C11        -7.9098   46.3188    9.4644 C.ar        1 MOL      -0.0591
     18 C6         -6.8488   46.1313   10.3809 C.ar        1 MOL       0.0268
     19 C2         -6.3990   44.8369   10.7271 C.2         1 MOL       0.1822
     20 N3         -5.7394   44.4712   11.8289 N.pl3       1 MOL      -0.1510
     21 N4         -5.5379   43.2334   11.7698 N.2         1 MOL      -0.0636
     22 N5         -6.0124   42.7878   10.7295 N.2         1 MOL      -0.1383
     23 N1         -6.5594   43.6987   10.0450 N.2         1 MOL      -0.2073
     24 H1         -4.5447   51.7875   11.1540 H           1 MOL       0.0680
     25 H2         -2.3967   53.7132   11.6044 H           1 MOL       0.1370
     26 H3         -1.8859   55.0998   13.6165 H           1 MOL       0.2935
     27 H4         -5.7863   53.1908   15.6647 H           1 MOL       0.0630
     28 H5         -7.1522   51.5748   14.5017 H           1 MOL       0.0669
     29 H6         -5.1831   49.5884   11.3911 H           1 MOL       0.2252
     30 H7         -5.4700   47.1589   11.6219 H           1 MOL       0.0543
     31 H8         -8.2005   49.6605    9.6249 H           1 MOL       0.0536
     32 H9         -9.1738   47.7362    8.5349 H           1 MOL       0.0588
     33 H10        -8.3548   45.5183    9.0099 H           1 MOL       0.0535
     34 H11        -5.4874   45.0535   12.5655 H           1 MOL       0.2708
@<TRIPOS>BOND
     1     1     2   2
     2     2     3   1
     3     2    12  am
     4     3     4  ar
     5     3    11  ar
     6     4     5  ar
     7     5     6   2
     8     5     9  ar
     9     6     7   1
    10     7     8   1
    11     8     9   2
    12     9    10  ar
    13    10    11  ar
    14    12    13   1
    15    13    14  ar
    16    13    15  ar
    17    14    18  ar
    18    15    16  ar
    19    16    17  ar
    20    17    18  ar
    21    18    19   1
    22    19    20   1
    23    19    23   2
    24    20    21   1
    25    21    22   2
    26    22    23   1
    27     4    24   1
    28     6    25   1
    29     7    26   1
    30    10    27   1
    31    11    28   1
    32    12    29   1
    33    14    30   1
    34    15    31   1
    35    16    32   1
    36    17    33   1
    37    20    34   1
@<TRIPOS>SUBSTRUCTURE
     1  MOL      2

