@<TRIPOS>MOLECULE
4de1_ligand_040
    34    37
SMALL
GAST_HUCK
****
This file was generated by PARSER (from files_GN.cpp)

@<TRIPOS>ATOM
      1 O14        -2.8549   49.5038   10.3296 O.2         1 MOL      -0.3730
      2 C13        -2.2398   50.1441   11.1750 C.2         1 MOL       0.2323
      3 C15        -2.6778   51.4244   11.5399 C.ar        1 MOL       0.0570
      4 C20        -4.0189   51.8381   11.2883 C.ar        1 MOL      -0.0265
      5 C19        -4.4362   53.1137   11.7063 C.ar        1 MOL       0.0384
      6 C23        -5.6462   53.7811   11.6460 C.2         1 MOL       0.1104
      7 N22        -5.4543   54.9807   12.2233 N.pl3       1 MOL      -0.2442
      8 N21        -4.2266   55.1219   12.6268 N.2         1 MOL      -0.3319
      9 C18        -3.5639   53.9918   12.3377 C.ar        1 MOL      -0.0092
     10 C17        -2.2322   53.6294   12.5782 C.ar        1 MOL      -0.0531
     11 C16        -1.7987   52.3494   12.1771 C.ar        1 MOL      -0.0414
     12 N12        -1.1623   49.6123   11.7467 N.am        1 MOL      -0.2325
     13 C8         -0.6114   48.4053   11.4696 C.ar        1 MOL       0.0706
     14 C7          0.5264   48.3196   10.6392 C.ar        1 MOL      -0.0238
     15 C9         -1.1179   47.2422   12.0786 C.ar        1 MOL      -0.0372
     16 C10        -0.5014   46.0022   11.8506 C.ar        1 MOL      -0.0702
     17 C11         0.6222   45.9172   11.0113 C.ar        1 MOL      -0.0591
     18 C6          1.1487   47.0727   10.3896 C.ar        1 MOL       0.0268
     19 C2          2.2891   46.9872    9.5577 C.2         1 MOL       0.1822
     20 N3          3.1219   47.9706    9.2091 N.pl3       1 MOL      -0.1510
     21 N4          4.0304   47.4855    8.4902 N.2         1 MOL      -0.0636
     22 N5          3.8392   46.2819    8.3458 N.2         1 MOL      -0.1383
     23 N1          2.8068   45.9024    8.9706 N.2         1 MOL      -0.2073
     24 H1         -4.6921   51.2202   10.8320 H           1 MOL       0.0680
     25 H2         -6.5205   53.4300   11.2502 H           1 MOL       0.1370
     26 H3         -6.1451   55.6569   12.3209 H           1 MOL       0.2935
     27 H4         -1.5887   54.2785   13.0338 H           1 MOL       0.0630
     28 H5         -0.8196   52.1079   12.3496 H           1 MOL       0.0669
     29 H6         -0.7433   50.1172   12.4610 H           1 MOL       0.2252
     30 H7          0.8900   49.1739   10.2083 H           1 MOL       0.0543
     31 H8         -1.9269   47.3020   12.7050 H           1 MOL       0.0536
     32 H9         -0.8631   45.1650   12.3098 H           1 MOL       0.0588
     33 H10         1.0561   45.0023   10.8662 H           1 MOL       0.0535
     34 H11         3.0590   48.8959    9.4975 H           1 MOL       0.2708
@<TRIPOS>BOND
     1     1     2   2
     2     2     3   1
     3     2    12  am
     4     3     4  ar
     5     3    11  ar
     6     4     5  ar
     7     5     6   2
     8     5     9  ar
     9     6     7   1
    10     7     8   1
    11     8     9   2
    12     9    10  ar
    13    10    11  ar
    14    12    13   1
    15    13    14  ar
    16    13    15  ar
    17    14    18  ar
    18    15    16  ar
    19    16    17  ar
    20    17    18  ar
    21    18    19   1
    22    19    20   1
    23    19    23   2
    24    20    21   1
    25    21    22   2
    26    22    23   1
    27     4    24   1
    28     6    25   1
    29     7    26   1
    30    10    27   1
    31    11    28   1
    32    12    29   1
    33    14    30   1
    34    15    31   1
    35    16    32   1
    36    17    33   1
    37    20    34   1
@<TRIPOS>SUBSTRUCTURE
     1  MOL      2

