@<TRIPOS>MOLECULE
4de1_ligand_014
    34    37
SMALL
GAST_HUCK
****
This file was generated by PARSER (from files_GN.cpp)

@<TRIPOS>ATOM
      1 O14       -11.7263   58.2306    9.3895 O.2         1 MOL      -0.3730
      2 C13       -11.0302   58.3250   10.3976 C.2         1 MOL       0.2323
      3 C15        -9.8582   57.5752   10.4659 C.ar        1 MOL       0.0570
      4 C20        -9.3528   57.0884   11.7060 C.ar        1 MOL      -0.0265
      5 C19        -8.1682   56.3346   11.7174 C.ar        1 MOL       0.0384
      6 C23        -7.4321   55.7234   12.7222 C.2         1 MOL       0.1104
      7 N22        -6.3792   55.1366   12.1271 N.pl3       1 MOL      -0.2442
      8 N21        -6.3946   55.3253   10.8404 N.2         1 MOL      -0.3319
      9 C18        -7.4768   56.0564   10.5436 C.ar        1 MOL      -0.0092
     10 C17        -7.9436   56.5222    9.3060 C.ar        1 MOL      -0.0531
     11 C16        -9.1318   57.2762    9.2762 C.ar        1 MOL      -0.0414
     12 N12       -11.4182   59.0967   11.4063 N.am        1 MOL      -0.2325
     13 C8        -12.5593   59.8382   11.4939 C.ar        1 MOL       0.0706
     14 C7        -13.0303   60.6578   10.4391 C.ar        1 MOL      -0.0238
     15 C9        -13.2828   59.7954   12.7035 C.ar        1 MOL      -0.0372
     16 C10       -14.4761   60.5246   12.8429 C.ar        1 MOL      -0.0702
     17 C11       -14.9394   61.3279   11.7860 C.ar        1 MOL      -0.0591
     18 C6        -14.2183   61.4155   10.5729 C.ar        1 MOL       0.0268
     19 C2        -14.6784   62.2557    9.5278 C.2         1 MOL       0.1822
     20 N3        -14.2063   62.3775    8.2846 N.pl3       1 MOL      -0.1510
     21 N4        -14.9043   63.2252    7.6741 N.2         1 MOL      -0.0636
     22 N5        -15.7758   63.6549    8.4254 N.2         1 MOL      -0.1383
     23 N1        -15.7030   63.1171    9.5660 N.2         1 MOL      -0.2073
     24 H1         -9.8387   57.2550   12.5896 H           1 MOL       0.0680
     25 H2         -7.6413   55.7184   13.7210 H           1 MOL       0.1370
     26 H3         -5.6954   54.6307   12.5903 H           1 MOL       0.2935
     27 H4         -7.4266   56.3347    8.4461 H           1 MOL       0.0630
     28 H5         -9.4558   57.6184    8.3676 H           1 MOL       0.0669
     29 H6        -10.8717   59.0740   12.2066 H           1 MOL       0.2252
     30 H7        -12.4877   60.7186    9.5732 H           1 MOL       0.0543
     31 H8        -12.9627   59.2084   13.4785 H           1 MOL       0.0536
     32 H9        -15.0089   60.4664   13.7111 H           1 MOL       0.0588
     33 H10       -15.8079   61.8508   11.9166 H           1 MOL       0.0535
     34 H11       -13.4592   61.8857    7.9073 H           1 MOL       0.2708
@<TRIPOS>BOND
     1     1     2   2
     2     2     3   1
     3     2    12  am
     4     3     4  ar
     5     3    11  ar
     6     4     5  ar
     7     5     6   2
     8     5     9  ar
     9     6     7   1
    10     7     8   1
    11     8     9   2
    12     9    10  ar
    13    10    11  ar
    14    12    13   1
    15    13    14  ar
    16    13    15  ar
    17    14    18  ar
    18    15    16  ar
    19    16    17  ar
    20    17    18  ar
    21    18    19   1
    22    19    20   1
    23    19    23   2
    24    20    21   1
    25    21    22   2
    26    22    23   1
    27     4    24   1
    28     6    25   1
    29     7    26   1
    30    10    27   1
    31    11    28   1
    32    12    29   1
    33    14    30   1
    34    15    31   1
    35    16    32   1
    36    17    33   1
    37    20    34   1
@<TRIPOS>SUBSTRUCTURE
     1  MOL      2

