@<TRIPOS>MOLECULE
4de1_ligand_044
    34    37
SMALL
GAST_HUCK
****
This file was generated by PARSER (from files_GN.cpp)

@<TRIPOS>ATOM
      1 O14        -7.0053   52.9985    7.8352 O.2         1 MOL      -0.3730
      2 C13        -7.0334   54.1098    8.3828 C.2         1 MOL       0.2323
      3 C15        -7.2672   54.1897    9.7621 C.ar        1 MOL       0.0570
      4 C20        -7.6919   53.0642   10.5166 C.ar        1 MOL      -0.0265
      5 C19        -8.0341   53.2138   11.8707 C.ar        1 MOL       0.0384
      6 C23        -8.5037   52.3228   12.8138 C.2         1 MOL       0.1104
      7 N22        -8.7348   53.0383   13.9294 N.pl3       1 MOL      -0.2442
      8 N21        -8.4116   54.2861   13.7677 N.2         1 MOL      -0.3319
      9 C18        -7.9708   54.4456   12.5053 C.ar        1 MOL      -0.0092
     10 C17        -7.5167   55.5776   11.8048 C.ar        1 MOL      -0.0531
     11 C16        -7.1623   55.4406   10.4572 C.ar        1 MOL      -0.0414
     12 N12        -6.7567   55.1947    7.6577 N.am        1 MOL      -0.2325
     13 C8         -6.5731   55.2968    6.2931 C.ar        1 MOL       0.0706
     14 C7         -7.4790   54.7530    5.3445 C.ar        1 MOL      -0.0238
     15 C9         -5.4487   55.9979    5.8172 C.ar        1 MOL      -0.0372
     16 C10        -5.1775   56.0950    4.4357 C.ar        1 MOL      -0.0702
     17 C11        -6.0656   55.5208    3.5058 C.ar        1 MOL      -0.0591
     18 C6         -7.2567   54.8931    3.9578 C.ar        1 MOL       0.0268
     19 C2         -8.2522   54.5088    3.0446 C.2         1 MOL       0.1822
     20 N3         -8.6991   55.2559    2.0329 N.pl3       1 MOL      -0.1510
     21 N4         -9.6827   54.6625    1.5220 N.2         1 MOL      -0.0636
     22 N5         -9.8925   53.6048    2.1058 N.2         1 MOL      -0.1383
     23 N1         -9.0735   53.4422    3.0529 N.2         1 MOL      -0.2073
     24 H1         -7.7831   52.1292   10.0897 H           1 MOL       0.0680
     25 H2         -8.6650   51.3309   12.6648 H           1 MOL       0.1370
     26 H3         -9.1064   52.6648   14.7410 H           1 MOL       0.2935
     27 H4         -7.4348   56.4794   12.2783 H           1 MOL       0.0630
     28 H5         -6.8554   56.2700    9.9628 H           1 MOL       0.0669
     29 H6         -6.6044   56.0216    8.1594 H           1 MOL       0.2252
     30 H7         -8.3268   54.2938    5.6681 H           1 MOL       0.0543
     31 H8         -4.7689   56.3959    6.4671 H           1 MOL       0.0536
     32 H9         -4.3200   56.5517    4.1094 H           1 MOL       0.0588
     33 H10        -5.8394   55.5486    2.5057 H           1 MOL       0.0535
     34 H11        -8.3382   56.1227    1.7801 H           1 MOL       0.2708
@<TRIPOS>BOND
     1     1     2   2
     2     2     3   1
     3     2    12  am
     4     3     4  ar
     5     3    11  ar
     6     4     5  ar
     7     5     6   2
     8     5     9  ar
     9     6     7   1
    10     7     8   1
    11     8     9   2
    12     9    10  ar
    13    10    11  ar
    14    12    13   1
    15    13    14  ar
    16    13    15  ar
    17    14    18  ar
    18    15    16  ar
    19    16    17  ar
    20    17    18  ar
    21    18    19   1
    22    19    20   1
    23    19    23   2
    24    20    21   1
    25    21    22   2
    26    22    23   1
    27     4    24   1
    28     6    25   1
    29     7    26   1
    30    10    27   1
    31    11    28   1
    32    12    29   1
    33    14    30   1
    34    15    31   1
    35    16    32   1
    36    17    33   1
    37    20    34   1
@<TRIPOS>SUBSTRUCTURE
     1  MOL      2

