@<TRIPOS>MOLECULE
4de1_ligand_043
    34    37
SMALL
GAST_HUCK
****
This file was generated by PARSER (from files_GN.cpp)

@<TRIPOS>ATOM
      1 O14        -2.6932   47.2442   12.1637 O.2         1 MOL      -0.3730
      2 C13        -1.9448   48.2118   12.0491 C.2         1 MOL       0.2323
      3 C15        -2.3673   49.4751   12.4857 C.ar        1 MOL       0.0570
      4 C20        -1.6612   50.6561   12.1249 C.ar        1 MOL      -0.0265
      5 C19        -2.1091   51.9056   12.5818 C.ar        1 MOL       0.0384
      6 C23        -1.6355   53.1960   12.4169 C.2         1 MOL       0.1104
      7 N22        -2.4515   54.0015   13.1148 N.pl3       1 MOL      -0.2442
      8 N21        -3.3978   53.3207   13.6924 N.2         1 MOL      -0.3319
      9 C18        -3.2320   52.0218   13.3905 C.ar        1 MOL      -0.0092
     10 C17        -3.9561   50.8835   13.7739 C.ar        1 MOL      -0.0531
     11 C16        -3.5240   49.6244   13.3087 C.ar        1 MOL      -0.0414
     12 N12        -0.7354   48.0278   11.5353 N.am        1 MOL      -0.2325
     13 C8         -0.2200   46.8656   11.0599 C.ar        1 MOL       0.0706
     14 C7         -0.3261   46.5596    9.6875 C.ar        1 MOL      -0.0238
     15 C9          0.5463   46.0326   11.8995 C.ar        1 MOL      -0.0372
     16 C10         1.1830   44.8930   11.3806 C.ar        1 MOL      -0.0702
     17 C11         1.0446   44.5654   10.0209 C.ar        1 MOL      -0.0591
     18 C6          0.2943   45.4019    9.1624 C.ar        1 MOL       0.0268
     19 C2          0.1778   45.1011    7.7969 C.2         1 MOL       0.1822
     20 N3         -0.0132   43.9113    7.2314 N.pl3       1 MOL      -0.1510
     21 N4         -0.0889   44.0828    5.9891 N.2         1 MOL      -0.0636
     22 N5          0.0537   45.2744    5.7296 N.2         1 MOL      -0.1383
     23 N1          0.2162   45.9599    6.7737 N.2         1 MOL      -0.2073
     24 H1         -0.8294   50.6304   11.5348 H           1 MOL       0.0680
     25 H2         -0.8204   53.4833   11.8778 H           1 MOL       0.1370
     26 H3         -2.3472   54.9645   13.1817 H           1 MOL       0.2935
     27 H4         -4.7743   50.9630   14.3778 H           1 MOL       0.0630
     28 H5         -4.0642   48.8064   13.5941 H           1 MOL       0.0669
     29 H6         -0.1336   48.7920   11.5282 H           1 MOL       0.2252
     30 H7         -0.8636   47.1784    9.0694 H           1 MOL       0.0543
     31 H8          0.6492   46.2599   12.8921 H           1 MOL       0.0536
     32 H9          1.7618   44.3119   11.9910 H           1 MOL       0.0588
     33 H10         1.5387   43.7463    9.6577 H           1 MOL       0.0535
     34 H11        -0.1386   43.0719    7.7060 H           1 MOL       0.2708
@<TRIPOS>BOND
     1     1     2   2
     2     2     3   1
     3     2    12  am
     4     3     4  ar
     5     3    11  ar
     6     4     5  ar
     7     5     6   2
     8     5     9  ar
     9     6     7   1
    10     7     8   1
    11     8     9   2
    12     9    10  ar
    13    10    11  ar
    14    12    13   1
    15    13    14  ar
    16    13    15  ar
    17    14    18  ar
    18    15    16  ar
    19    16    17  ar
    20    17    18  ar
    21    18    19   1
    22    19    20   1
    23    19    23   2
    24    20    21   1
    25    21    22   2
    26    22    23   1
    27     4    24   1
    28     6    25   1
    29     7    26   1
    30    10    27   1
    31    11    28   1
    32    12    29   1
    33    14    30   1
    34    15    31   1
    35    16    32   1
    36    17    33   1
    37    20    34   1
@<TRIPOS>SUBSTRUCTURE
     1  MOL      2

