@<TRIPOS>MOLECULE
4de1_ligand_031
    34    37
SMALL
GAST_HUCK
****
This file was generated by PARSER (from files_GN.cpp)

@<TRIPOS>ATOM
      1 O14        -6.9635   49.9522   10.6170 O.2         1 MOL      -0.3730
      2 C13        -7.1002   50.5938   11.6535 C.2         1 MOL       0.2323
      3 C15        -5.9966   51.2822   12.1778 C.ar        1 MOL       0.0570
      4 C20        -4.9380   51.7129   11.3282 C.ar        1 MOL      -0.0265
      5 C19        -3.8490   52.4113   11.8687 C.ar        1 MOL       0.0384
      6 C23        -2.7048   52.9656   11.3154 C.2         1 MOL       0.1104
      7 N22        -2.0167   53.5198   12.3255 N.pl3       1 MOL      -0.2442
      8 N21        -2.6246   53.3471   13.4621 N.2         1 MOL      -0.3319
      9 C18        -3.7657   52.6827   13.2295 C.ar        1 MOL      -0.0092
     10 C17        -4.7832   52.2633   14.1037 C.ar        1 MOL      -0.0531
     11 C16        -5.8930   51.5728   13.5680 C.ar        1 MOL      -0.0414
     12 N12        -8.3136   50.7513   12.1752 N.am        1 MOL      -0.2325
     13 C8         -9.5088   50.2121   11.7676 C.ar        1 MOL       0.0706
     14 C7        -10.6645   51.0165   11.8877 C.ar        1 MOL      -0.0238
     15 C9         -9.6568   48.8943   11.2721 C.ar        1 MOL      -0.0372
     16 C10       -10.9188   48.4150   10.8748 C.ar        1 MOL      -0.0702
     17 C11       -12.0500   49.2421   10.9703 C.ar        1 MOL      -0.0591
     18 C6        -11.9396   50.5589   11.4727 C.ar        1 MOL       0.0268
     19 C2        -13.0781   51.3956   11.5536 C.2         1 MOL       0.1822
     20 N3        -14.3636   51.0396   11.5711 N.pl3       1 MOL      -0.1510
     21 N4        -15.0590   52.0810   11.6607 N.2         1 MOL      -0.0636
     22 N5        -14.3278   53.0649   11.6895 N.2         1 MOL      -0.1383
     23 N1        -13.1121   52.7287   11.6393 N.2         1 MOL      -0.2073
     24 H1         -4.9585   51.5370   10.3199 H           1 MOL       0.0680
     25 H2         -2.4386   52.9633   10.3274 H           1 MOL       0.1370
     26 H3         -1.1725   53.9896   12.2183 H           1 MOL       0.2935
     27 H4         -4.7213   52.4619   15.1041 H           1 MOL       0.0630
     28 H5         -6.6221   51.2618   14.2190 H           1 MOL       0.0669
     29 H6         -8.3754   51.4198   12.8782 H           1 MOL       0.2252
     30 H7        -10.5662   51.9639   12.2634 H           1 MOL       0.0543
     31 H8         -8.8547   48.2681   11.2103 H           1 MOL       0.0536
     32 H9        -11.0174   47.4618   10.5199 H           1 MOL       0.0588
     33 H10       -12.9562   48.8698   10.6660 H           1 MOL       0.0535
     34 H11       -14.7034   50.1313   11.5535 H           1 MOL       0.2708
@<TRIPOS>BOND
     1     1     2   2
     2     2     3   1
     3     2    12  am
     4     3     4  ar
     5     3    11  ar
     6     4     5  ar
     7     5     6   2
     8     5     9  ar
     9     6     7   1
    10     7     8   1
    11     8     9   2
    12     9    10  ar
    13    10    11  ar
    14    12    13   1
    15    13    14  ar
    16    13    15  ar
    17    14    18  ar
    18    15    16  ar
    19    16    17  ar
    20    17    18  ar
    21    18    19   1
    22    19    20   1
    23    19    23   2
    24    20    21   1
    25    21    22   2
    26    22    23   1
    27     4    24   1
    28     6    25   1
    29     7    26   1
    30    10    27   1
    31    11    28   1
    32    12    29   1
    33    14    30   1
    34    15    31   1
    35    16    32   1
    36    17    33   1
    37    20    34   1
@<TRIPOS>SUBSTRUCTURE
     1  MOL      2

