@<TRIPOS>MOLECULE
4de1_ligand_065
    34    37
SMALL
GAST_HUCK
****
This file was generated by PARSER (from files_GN.cpp)

@<TRIPOS>ATOM
      1 O14        -5.3341   49.1945    5.7801 O.2         1 MOL      -0.3730
      2 C13        -4.7789   50.1867    6.2388 C.2         1 MOL       0.2323
      3 C15        -5.1018   51.4453    5.7144 C.ar        1 MOL       0.0570
      4 C20        -5.1078   52.5968    6.5452 C.ar        1 MOL      -0.0265
      5 C19        -5.4349   53.8498    5.9901 C.ar        1 MOL       0.0384
      6 C23        -5.5223   55.1263    6.5103 C.2         1 MOL       0.1104
      7 N22        -5.8498   55.9429    5.4969 N.pl3       1 MOL      -0.2442
      8 N21        -5.9952   55.2790    4.3909 N.2         1 MOL      -0.3319
      9 C18        -5.7517   53.9785    4.6433 C.ar        1 MOL      -0.0092
     10 C17        -5.7708   52.8603    3.7990 C.ar        1 MOL      -0.0531
     11 C16        -5.4505   51.5958    4.3408 C.ar        1 MOL      -0.0414
     12 N12        -3.8777   50.0669    7.2145 N.am        1 MOL      -0.2325
     13 C8         -3.5834   48.9346    7.9126 C.ar        1 MOL       0.0706
     14 C7         -2.6054   48.0151    7.4684 C.ar        1 MOL      -0.0238
     15 C9         -4.2248   48.7058    9.1486 C.ar        1 MOL      -0.0372
     16 C10        -3.9108   47.5708    9.9182 C.ar        1 MOL      -0.0702
     17 C11        -2.9511   46.6508    9.4568 C.ar        1 MOL      -0.0591
     18 C6         -2.2877   46.8620    8.2278 C.ar        1 MOL       0.0268
     19 C2         -1.3180   45.9332    7.7782 C.2         1 MOL       0.1822
     20 N3         -1.2862   44.6155    7.9819 N.pl3       1 MOL      -0.1510
     21 N4         -0.2727   44.1531    7.3981 N.2         1 MOL      -0.0636
     22 N5          0.3319   45.0636    6.8378 N.2         1 MOL      -0.1383
     23 N1         -0.2390   46.1766    7.0317 N.2         1 MOL      -0.2073
     24 H1         -4.9028   52.5283    7.5448 H           1 MOL       0.0680
     25 H2         -5.3535   55.4059    7.4726 H           1 MOL       0.1370
     26 H3         -5.9602   56.9029    5.5877 H           1 MOL       0.2935
     27 H4         -5.9992   52.9617    2.8080 H           1 MOL       0.0630
     28 H5         -5.4533   50.7852    3.7153 H           1 MOL       0.0669
     29 H6         -3.4556   50.8831    7.5194 H           1 MOL       0.2252
     30 H7         -2.1309   48.1748    6.5711 H           1 MOL       0.0543
     31 H8         -4.9175   49.3700    9.4894 H           1 MOL       0.0536
     32 H9         -4.3695   47.4340   10.8186 H           1 MOL       0.0588
     33 H10        -2.7244   45.8462   10.0535 H           1 MOL       0.0535
     34 H11        -1.9545   44.0925    8.4540 H           1 MOL       0.2708
@<TRIPOS>BOND
     1     1     2   2
     2     2     3   1
     3     2    12  am
     4     3     4  ar
     5     3    11  ar
     6     4     5  ar
     7     5     6   2
     8     5     9  ar
     9     6     7   1
    10     7     8   1
    11     8     9   2
    12     9    10  ar
    13    10    11  ar
    14    12    13   1
    15    13    14  ar
    16    13    15  ar
    17    14    18  ar
    18    15    16  ar
    19    16    17  ar
    20    17    18  ar
    21    18    19   1
    22    19    20   1
    23    19    23   2
    24    20    21   1
    25    21    22   2
    26    22    23   1
    27     4    24   1
    28     6    25   1
    29     7    26   1
    30    10    27   1
    31    11    28   1
    32    12    29   1
    33    14    30   1
    34    15    31   1
    35    16    32   1
    36    17    33   1
    37    20    34   1
@<TRIPOS>SUBSTRUCTURE
     1  MOL      2

