@<TRIPOS>MOLECULE
4de1_ligand_075
    34    37
SMALL
GAST_HUCK
****
This file was generated by PARSER (from files_GN.cpp)

@<TRIPOS>ATOM
      1 O14       -10.7665   55.0835    9.4843 O.2         1 MOL      -0.3730
      2 C13       -10.7283   55.9695    8.6329 C.2         1 MOL       0.2323
      3 C15        -9.6019   56.0564    7.8291 C.ar        1 MOL       0.0570
      4 C20        -9.7006   56.4765    6.4685 C.ar        1 MOL      -0.0265
      5 C19        -8.5455   56.5519    5.6792 C.ar        1 MOL       0.0384
      6 C23        -8.3201   56.9285    4.3693 C.2         1 MOL       0.1104
      7 N22        -6.9955   56.8168    4.1583 N.pl3       1 MOL      -0.2442
      8 N21        -6.3800   56.3876    5.2218 N.2         1 MOL      -0.3319
      9 C18        -7.2946   56.2164    6.1925 C.ar        1 MOL      -0.0092
     10 C17        -7.1598   55.7981    7.5260 C.ar        1 MOL      -0.0531
     11 C16        -8.3091   55.7149    8.3334 C.ar        1 MOL      -0.0414
     12 N12       -11.7759   56.7695    8.4310 N.am        1 MOL      -0.2325
     13 C8        -13.0069   56.7994    9.0354 C.ar        1 MOL       0.0706
     14 C7        -13.3067   56.3514   10.3490 C.ar        1 MOL      -0.0238
     15 C9        -14.0547   57.3842    8.2730 C.ar        1 MOL      -0.0372
     16 C10       -15.3667   57.4257    8.7748 C.ar        1 MOL      -0.0702
     17 C11       -15.6625   56.9063   10.0480 C.ar        1 MOL      -0.0591
     18 C6        -14.6301   56.3798   10.8624 C.ar        1 MOL       0.0268
     19 C2        -14.9192   55.8786   12.1519 C.2         1 MOL       0.1822
     20 N3        -16.0985   55.4833   12.6448 N.pl3       1 MOL      -0.1510
     21 N4        -15.9173   55.0746   13.8219 N.2         1 MOL      -0.0636
     22 N5        -14.7333   55.2074   14.1308 N.2         1 MOL      -0.1383
     23 N1        -14.0622   55.6852   13.1601 N.2         1 MOL      -0.2073
     24 H1        -10.6019   56.7145    6.0513 H           1 MOL       0.0680
     25 H2         -9.0091   57.2485    3.6930 H           1 MOL       0.1370
     26 H3         -6.5601   57.0247    3.3207 H           1 MOL       0.2935
     27 H4         -6.2286   55.5745    7.9001 H           1 MOL       0.0630
     28 H5         -8.1888   55.4388    9.3121 H           1 MOL       0.0669
     29 H6        -11.6654   57.4014    7.7024 H           1 MOL       0.2252
     30 H7        -12.5552   55.9754   10.9366 H           1 MOL       0.0543
     31 H8        -13.8733   57.7346    7.3276 H           1 MOL       0.0536
     32 H9        -16.1163   57.8235    8.1991 H           1 MOL       0.0588
     33 H10       -16.6267   56.9487   10.3856 H           1 MOL       0.0535
     34 H11       -16.9434   55.4869   12.1745 H           1 MOL       0.2708
@<TRIPOS>BOND
     1     1     2   2
     2     2     3   1
     3     2    12  am
     4     3     4  ar
     5     3    11  ar
     6     4     5  ar
     7     5     6   2
     8     5     9  ar
     9     6     7   1
    10     7     8   1
    11     8     9   2
    12     9    10  ar
    13    10    11  ar
    14    12    13   1
    15    13    14  ar
    16    13    15  ar
    17    14    18  ar
    18    15    16  ar
    19    16    17  ar
    20    17    18  ar
    21    18    19   1
    22    19    20   1
    23    19    23   2
    24    20    21   1
    25    21    22   2
    26    22    23   1
    27     4    24   1
    28     6    25   1
    29     7    26   1
    30    10    27   1
    31    11    28   1
    32    12    29   1
    33    14    30   1
    34    15    31   1
    35    16    32   1
    36    17    33   1
    37    20    34   1
@<TRIPOS>SUBSTRUCTURE
     1  MOL      2

