@<TRIPOS>MOLECULE
4de1_ligand_079
    34    37
SMALL
GAST_HUCK
****
This file was generated by PARSER (from files_GN.cpp)

@<TRIPOS>ATOM
      1 O14        -9.6577   56.0983   12.4395 O.2         1 MOL      -0.3730
      2 C13        -9.7827   56.4897   11.2729 C.2         1 MOL       0.2323
      3 C15       -10.7162   57.5008   11.0204 C.ar        1 MOL       0.0570
      4 C20       -11.6349   57.4234    9.9268 C.ar        1 MOL      -0.0265
      5 C19       -12.5052   58.5064    9.6869 C.ar        1 MOL       0.0384
      6 C23       -13.4881   58.7662    8.7269 C.2         1 MOL       0.1104
      7 N22       -13.9938   59.9705    9.0098 N.pl3       1 MOL      -0.2442
      8 N21       -13.4183   60.5000   10.0407 N.2         1 MOL      -0.3319
      9 C18       -12.4947   59.6470   10.4908 C.ar        1 MOL      -0.0092
     10 C17       -11.6103   59.7418   11.5719 C.ar        1 MOL      -0.0531
     11 C16       -10.7437   58.6626   11.8387 C.ar        1 MOL      -0.0414
     12 N12        -9.1585   55.8318   10.2872 N.am        1 MOL      -0.2325
     13 C8         -8.2362   54.8167   10.3939 C.ar        1 MOL       0.0706
     14 C7         -7.1196   54.9083   11.2543 C.ar        1 MOL      -0.0238
     15 C9         -8.3500   53.6859    9.5589 C.ar        1 MOL      -0.0372
     16 C10        -7.4212   52.6327    9.6430 C.ar        1 MOL      -0.0702
     17 C11        -6.3481   52.7112   10.5617 C.ar        1 MOL      -0.0591
     18 C6         -6.1703   53.8637   11.3515 C.ar        1 MOL       0.0268
     19 C2         -5.0745   53.9775   12.2240 C.2         1 MOL       0.1822
     20 N3         -4.5151   55.0808   12.7416 N.pl3       1 MOL      -0.1510
     21 N4         -3.5849   54.7234   13.5025 N.2         1 MOL      -0.0636
     22 N5         -3.5199   53.4981   13.5258 N.2         1 MOL      -0.1383
     23 N1         -4.3808   52.9708   12.7774 N.2         1 MOL      -0.2073
     24 H1        -11.6700   56.6144    9.3205 H           1 MOL       0.0680
     25 H2        -13.7616   58.1603    7.9560 H           1 MOL       0.1370
     26 H3        -14.7083   60.4034    8.4966 H           1 MOL       0.2935
     27 H4        -11.5804   60.5878   12.1490 H           1 MOL       0.0630
     28 H5        -10.0960   58.7553   12.6180 H           1 MOL       0.0669
     29 H6         -9.3753   56.1109    9.3789 H           1 MOL       0.2252
     30 H7         -6.9946   55.7526   11.8131 H           1 MOL       0.0543
     31 H8         -9.1183   53.6047    8.8849 H           1 MOL       0.0536
     32 H9         -7.5035   51.8117    9.0300 H           1 MOL       0.0588
     33 H10        -5.6905   51.9286   10.6062 H           1 MOL       0.0535
     34 H11        -4.7552   55.9985   12.5159 H           1 MOL       0.2708
@<TRIPOS>BOND
     1     1     2   2
     2     2     3   1
     3     2    12  am
     4     3     4  ar
     5     3    11  ar
     6     4     5  ar
     7     5     6   2
     8     5     9  ar
     9     6     7   1
    10     7     8   1
    11     8     9   2
    12     9    10  ar
    13    10    11  ar
    14    12    13   1
    15    13    14  ar
    16    13    15  ar
    17    14    18  ar
    18    15    16  ar
    19    16    17  ar
    20    17    18  ar
    21    18    19   1
    22    19    20   1
    23    19    23   2
    24    20    21   1
    25    21    22   2
    26    22    23   1
    27     4    24   1
    28     6    25   1
    29     7    26   1
    30    10    27   1
    31    11    28   1
    32    12    29   1
    33    14    30   1
    34    15    31   1
    35    16    32   1
    36    17    33   1
    37    20    34   1
@<TRIPOS>SUBSTRUCTURE
     1  MOL      2

