@<TRIPOS>MOLECULE
4de1_ligand_047
    34    37
SMALL
GAST_HUCK
****
This file was generated by PARSER (from files_GN.cpp)

@<TRIPOS>ATOM
      1 O14        -8.2271   53.6610    7.7940 O.2         1 MOL      -0.3730
      2 C13        -9.2071   54.3796    7.9552 C.2         1 MOL       0.2323
      3 C15        -9.9213   54.7734    6.8501 C.ar        1 MOL       0.0570
      4 C20        -9.6910   56.0455    6.2764 C.ar        1 MOL      -0.0265
      5 C19       -10.4329   56.4133    5.1411 C.ar        1 MOL       0.0384
      6 C23       -10.4374   57.5306    4.3313 C.2         1 MOL       0.1104
      7 N22       -11.3696   57.3191    3.3883 N.pl3       1 MOL      -0.2442
      8 N21       -11.9475   56.1649    3.5407 N.2         1 MOL      -0.3319
      9 C18       -11.3999   55.5656    4.6093 C.ar        1 MOL      -0.0092
     10 C17       -11.6685   54.3157    5.1820 C.ar        1 MOL      -0.0531
     11 C16       -10.9159   53.9158    6.3073 C.ar        1 MOL      -0.0414
     12 N12        -9.7341   54.6013    9.1505 N.am        1 MOL      -0.2325
     13 C8         -9.2200   54.1912   10.3342 C.ar        1 MOL       0.0706
     14 C7         -8.0381   54.7652   10.8427 C.ar        1 MOL      -0.0238
     15 C9         -9.9082   53.2167   11.0821 C.ar        1 MOL      -0.0372
     16 C10        -9.4262   52.8309   12.3416 C.ar        1 MOL      -0.0702
     17 C11        -8.2820   53.4408   12.8802 C.ar        1 MOL      -0.0591
     18 C6         -7.5710   54.4025   12.1269 C.ar        1 MOL       0.0268
     19 C2         -6.4399   55.0362   12.6577 C.2         1 MOL       0.1822
     20 N3         -5.1833   54.9467   12.2323 N.pl3       1 MOL      -0.1510
     21 N4         -4.4858   55.7104   12.9484 N.2         1 MOL      -0.0636
     22 N5         -5.1943   56.2531   13.7902 N.2         1 MOL      -0.1383
     23 N1         -6.4056   55.9006   13.6763 N.2         1 MOL      -0.2073
     24 H1         -8.9977   56.6865    6.6681 H           1 MOL       0.0680
     25 H2         -9.8497   58.3624    4.4243 H           1 MOL       0.1370
     26 H3        -11.5920   57.9476    2.6818 H           1 MOL       0.2935
     27 H4        -12.3862   53.7056    4.7928 H           1 MOL       0.0630
     28 H5        -11.0996   52.9982    6.7248 H           1 MOL       0.0669
     29 H6        -10.5705   55.0850    9.1846 H           1 MOL       0.2252
     30 H7         -7.5413   55.4780   10.3024 H           1 MOL       0.0543
     31 H8        -10.7538   52.7831   10.7036 H           1 MOL       0.0536
     32 H9         -9.9263   52.1182   12.8799 H           1 MOL       0.0588
     33 H10        -7.9629   53.1741   13.8149 H           1 MOL       0.0535
     34 H11        -4.8561   54.3864   11.5078 H           1 MOL       0.2708
@<TRIPOS>BOND
     1     1     2   2
     2     2     3   1
     3     2    12  am
     4     3     4  ar
     5     3    11  ar
     6     4     5  ar
     7     5     6   2
     8     5     9  ar
     9     6     7   1
    10     7     8   1
    11     8     9   2
    12     9    10  ar
    13    10    11  ar
    14    12    13   1
    15    13    14  ar
    16    13    15  ar
    17    14    18  ar
    18    15    16  ar
    19    16    17  ar
    20    17    18  ar
    21    18    19   1
    22    19    20   1
    23    19    23   2
    24    20    21   1
    25    21    22   2
    26    22    23   1
    27     4    24   1
    28     6    25   1
    29     7    26   1
    30    10    27   1
    31    11    28   1
    32    12    29   1
    33    14    30   1
    34    15    31   1
    35    16    32   1
    36    17    33   1
    37    20    34   1
@<TRIPOS>SUBSTRUCTURE
     1  MOL      2

