@<TRIPOS>MOLECULE
4de1_ligand_034
    34    37
SMALL
GAST_HUCK
****
This file was generated by PARSER (from files_GN.cpp)

@<TRIPOS>ATOM
      1 O14        -3.0923   50.3397   10.4848 O.2         1 MOL      -0.3730
      2 C13        -2.5500   50.9342   11.4121 C.2         1 MOL       0.2323
      3 C15        -3.0981   52.1379   11.8797 C.ar        1 MOL       0.0570
      4 C20        -4.4282   52.5129   11.5350 C.ar        1 MOL      -0.0265
      5 C19        -4.9720   53.7043   12.0446 C.ar        1 MOL       0.0384
      6 C23        -6.2065   54.3182   11.9127 C.2         1 MOL       0.1104
      7 N22        -6.1594   55.4452   12.6445 N.pl3       1 MOL      -0.2442
      8 N21        -5.0024   55.5845   13.2229 N.2         1 MOL      -0.3319
      9 C18        -4.2358   54.5366   12.8778 C.ar        1 MOL      -0.0092
     10 C17        -2.9173   54.2137   13.2246 C.ar        1 MOL      -0.0531
     11 C16        -2.3595   53.0180   12.7252 C.ar        1 MOL      -0.0414
     12 N12        -1.4769   50.3945   11.9843 N.am        1 MOL      -0.2325
     13 C8         -0.9370   49.1822   11.6881 C.ar        1 MOL       0.0706
     14 C7         -1.3683   48.0375   12.3925 C.ar        1 MOL      -0.0238
     15 C9          0.0955   49.0676   10.7341 C.ar        1 MOL      -0.0372
     16 C10         0.6872   47.8162   10.4837 C.ar        1 MOL      -0.0702
     17 C11         0.2604   46.6766   11.1906 C.ar        1 MOL      -0.0591
     18 C6         -0.7708   46.7814   12.1494 C.ar        1 MOL       0.0268
     19 C2         -1.2089   45.6484   12.8500 C.2         1 MOL       0.1822
     20 N3         -0.6960   45.1166   13.9591 N.pl3       1 MOL      -0.1510
     21 N4         -1.4026   44.1223   14.2626 N.2         1 MOL      -0.0636
     22 N5         -2.3066   43.9858   13.4429 N.2         1 MOL      -0.1383
     23 N1         -2.2594   44.8804   12.5500 N.2         1 MOL      -0.2073
     24 H1         -5.0147   51.9219   10.9418 H           1 MOL       0.0680
     25 H2         -7.0033   53.9812   11.3707 H           1 MOL       0.1370
     26 H3         -6.8957   56.0718   12.7354 H           1 MOL       0.2935
     27 H4         -2.3733   54.8309   13.8306 H           1 MOL       0.0630
     28 H5         -1.3947   52.8061   12.9862 H           1 MOL       0.0669
     29 H6         -1.0937   50.8571   12.7447 H           1 MOL       0.2252
     30 H7         -2.1123   48.1265   13.0929 H           1 MOL       0.0543
     31 H8          0.4211   49.8923   10.2242 H           1 MOL       0.0536
     32 H9          1.4335   47.7361    9.7879 H           1 MOL       0.0588
     33 H10         0.7023   45.7742   10.9974 H           1 MOL       0.0535
     34 H11         0.0680   45.4407   14.4639 H           1 MOL       0.2708
@<TRIPOS>BOND
     1     1     2   2
     2     2     3   1
     3     2    12  am
     4     3     4  ar
     5     3    11  ar
     6     4     5  ar
     7     5     6   2
     8     5     9  ar
     9     6     7   1
    10     7     8   1
    11     8     9   2
    12     9    10  ar
    13    10    11  ar
    14    12    13   1
    15    13    14  ar
    16    13    15  ar
    17    14    18  ar
    18    15    16  ar
    19    16    17  ar
    20    17    18  ar
    21    18    19   1
    22    19    20   1
    23    19    23   2
    24    20    21   1
    25    21    22   2
    26    22    23   1
    27     4    24   1
    28     6    25   1
    29     7    26   1
    30    10    27   1
    31    11    28   1
    32    12    29   1
    33    14    30   1
    34    15    31   1
    35    16    32   1
    36    17    33   1
    37    20    34   1
@<TRIPOS>SUBSTRUCTURE
     1  MOL      2

