@<TRIPOS>MOLECULE
4de1_ligand_012
    34    37
SMALL
GAST_HUCK
****
This file was generated by PARSER (from files_GN.cpp)

@<TRIPOS>ATOM
      1 O14       -12.3636   60.1046   11.8408 O.2         1 MOL      -0.3730
      2 C13       -12.9223   59.0530   12.1271 C.2         1 MOL       0.2323
      3 C15       -14.2549   59.1231   12.4565 C.ar        1 MOL       0.0570
      4 C20       -15.2317   59.1030   11.4286 C.ar        1 MOL      -0.0265
      5 C19       -16.5825   59.2253   11.7861 C.ar        1 MOL       0.0384
      6 C23       -17.7576   59.2355   11.0510 C.2         1 MOL       0.1104
      7 N22       -18.7610   59.3812   11.9324 N.pl3       1 MOL      -0.2442
      8 N21       -18.3154   59.4673   13.1527 N.2         1 MOL      -0.3319
      9 C18       -16.9751   59.3768   13.1149 C.ar        1 MOL      -0.0092
     10 C17       -16.0187   59.4156   14.1447 C.ar        1 MOL      -0.0531
     11 C16       -14.6554   59.2861   13.8085 C.ar        1 MOL      -0.0414
     12 N12       -12.3179   57.8726   12.0700 N.am        1 MOL      -0.2325
     13 C8        -11.0509   57.6244   11.6234 C.ar        1 MOL       0.0706
     14 C7        -10.1284   56.9902   12.4849 C.ar        1 MOL      -0.0238
     15 C9        -10.6411   57.9402   10.3052 C.ar        1 MOL      -0.0372
     16 C10        -9.3296   57.6783    9.8821 C.ar        1 MOL      -0.0702
     17 C11        -8.4071   57.1024   10.7715 C.ar        1 MOL      -0.0591
     18 C6         -8.7900   56.7545   12.0846 C.ar        1 MOL       0.0268
     19 C2         -7.8465   56.2025   12.9715 C.2         1 MOL       0.1822
     20 N3         -6.5424   56.4748   13.0138 N.pl3       1 MOL      -0.1510
     21 N4         -6.0292   55.8126   13.9470 N.2         1 MOL      -0.0636
     22 N5         -6.8981   55.1333   14.4850 N.2         1 MOL      -0.1383
     23 N1         -8.0332   55.3346   13.9654 N.2         1 MOL      -0.2073
     24 H1        -14.9687   59.0006   10.4449 H           1 MOL       0.0680
     25 H2        -17.8456   59.1511   10.0362 H           1 MOL       0.1370
     26 H3        -19.6993   59.4226   11.6917 H           1 MOL       0.2935
     27 H4        -16.3058   59.5368   15.1166 H           1 MOL       0.0630
     28 H5        -13.9525   59.3201   14.5518 H           1 MOL       0.0669
     29 H6        -12.8036   57.1219   12.4413 H           1 MOL       0.2252
     30 H7        -10.4264   56.7529   13.4393 H           1 MOL       0.0543
     31 H8        -11.3029   58.3428    9.6383 H           1 MOL       0.0536
     32 H9         -9.0421   57.8954    8.9241 H           1 MOL       0.0588
     33 H10        -7.4517   56.9302   10.4444 H           1 MOL       0.0535
     34 H11        -6.0819   57.1211   12.4576 H           1 MOL       0.2708
@<TRIPOS>BOND
     1     1     2   2
     2     2     3   1
     3     2    12  am
     4     3     4  ar
     5     3    11  ar
     6     4     5  ar
     7     5     6   2
     8     5     9  ar
     9     6     7   1
    10     7     8   1
    11     8     9   2
    12     9    10  ar
    13    10    11  ar
    14    12    13   1
    15    13    14  ar
    16    13    15  ar
    17    14    18  ar
    18    15    16  ar
    19    16    17  ar
    20    17    18  ar
    21    18    19   1
    22    19    20   1
    23    19    23   2
    24    20    21   1
    25    21    22   2
    26    22    23   1
    27     4    24   1
    28     6    25   1
    29     7    26   1
    30    10    27   1
    31    11    28   1
    32    12    29   1
    33    14    30   1
    34    15    31   1
    35    16    32   1
    36    17    33   1
    37    20    34   1
@<TRIPOS>SUBSTRUCTURE
     1  MOL      2

