@<TRIPOS>MOLECULE
4de1_ligand_061
    34    37
SMALL
GAST_HUCK
****
This file was generated by PARSER (from files_GN.cpp)

@<TRIPOS>ATOM
      1 O14        -5.8188   50.0350   12.9318 O.2         1 MOL      -0.3730
      2 C13        -5.4897   50.3192   11.7835 C.2         1 MOL       0.2323
      3 C15        -4.1819   50.6931   11.5617 C.ar        1 MOL       0.0570
      4 C20        -3.1519   49.7384   11.7349 C.ar        1 MOL      -0.0265
      5 C19        -1.8267   50.1346   11.4992 C.ar        1 MOL       0.0384
      6 C23        -0.6202   49.4663   11.5578 C.2         1 MOL       0.1104
      7 N22         0.3363   50.3600   11.2473 N.pl3       1 MOL      -0.2442
      8 N21        -0.1784   51.5327   10.9994 N.2         1 MOL      -0.3319
      9 C18        -1.5125   51.4394   11.1345 C.ar        1 MOL      -0.0092
     10 C17        -2.5194   52.4010   10.9751 C.ar        1 MOL      -0.0531
     11 C16        -3.8631   52.0165   11.1731 C.ar        1 MOL      -0.0414
     12 N12        -6.3351   50.2684   10.7611 N.am        1 MOL      -0.2325
     13 C8         -7.6125   49.8418   10.8657 C.ar        1 MOL       0.0706
     14 C7         -8.6497   50.7871   10.9655 C.ar        1 MOL      -0.0238
     15 C9         -7.9217   48.4630   10.8631 C.ar        1 MOL      -0.0372
     16 C10        -9.2565   48.0404   10.9934 C.ar        1 MOL      -0.0702
     17 C11       -10.2883   48.9879   11.1144 C.ar        1 MOL      -0.0591
     18 C6         -9.9948   50.3701   11.1006 C.ar        1 MOL       0.0268
     19 C2        -11.0322   51.3250   11.1655 C.2         1 MOL       0.1822
     20 N3        -12.1593   51.2588   11.8786 N.pl3       1 MOL      -0.1510
     21 N4        -12.8535   52.2726   11.6105 N.2         1 MOL      -0.0636
     22 N5        -12.2567   52.9747   10.7918 N.2         1 MOL      -0.1383
     23 N1        -11.1396   52.4688   10.4784 N.2         1 MOL      -0.2073
     24 H1         -3.3582   48.7693   11.9936 H           1 MOL       0.0680
     25 H2         -0.4761   48.4870   11.8037 H           1 MOL       0.1370
     26 H3          1.2830   50.1633   11.2159 H           1 MOL       0.2935
     27 H4         -2.2783   53.3581   10.7264 H           1 MOL       0.0630
     28 H5         -4.6053   52.7154   11.0542 H           1 MOL       0.0669
     29 H6         -5.9898   50.4784    9.8747 H           1 MOL       0.2252
     30 H7         -8.4072   51.7796   10.9789 H           1 MOL       0.0543
     31 H8         -7.1757   47.7623   10.7867 H           1 MOL       0.0536
     32 H9         -9.4745   47.0420   10.9941 H           1 MOL       0.0588
     33 H10       -11.2535   48.6605   11.1989 H           1 MOL       0.0535
     34 H11       -12.3837   50.5620   12.5208 H           1 MOL       0.2708
@<TRIPOS>BOND
     1     1     2   2
     2     2     3   1
     3     2    12  am
     4     3     4  ar
     5     3    11  ar
     6     4     5  ar
     7     5     6   2
     8     5     9  ar
     9     6     7   1
    10     7     8   1
    11     8     9   2
    12     9    10  ar
    13    10    11  ar
    14    12    13   1
    15    13    14  ar
    16    13    15  ar
    17    14    18  ar
    18    15    16  ar
    19    16    17  ar
    20    17    18  ar
    21    18    19   1
    22    19    20   1
    23    19    23   2
    24    20    21   1
    25    21    22   2
    26    22    23   1
    27     4    24   1
    28     6    25   1
    29     7    26   1
    30    10    27   1
    31    11    28   1
    32    12    29   1
    33    14    30   1
    34    15    31   1
    35    16    32   1
    36    17    33   1
    37    20    34   1
@<TRIPOS>SUBSTRUCTURE
     1  MOL      2

