@<TRIPOS>MOLECULE
4de1_ligand_074
    34    37
SMALL
GAST_HUCK
****
This file was generated by PARSER (from files_GN.cpp)

@<TRIPOS>ATOM
      1 O14        -0.2618   48.1684    9.6515 O.2         1 MOL      -0.3730
      2 C13        -1.0480   49.0684    9.9201 C.2         1 MOL       0.2323
      3 C15        -0.7740   50.3323    9.4633 C.ar        1 MOL       0.0570
      4 C20        -1.1261   50.7062    8.1441 C.ar        1 MOL      -0.0265
      5 C19        -0.8440   52.0153    7.7222 C.ar        1 MOL       0.0384
      6 C23        -1.0505   52.6886    6.5305 C.2         1 MOL       0.1104
      7 N22        -0.5816   53.9345    6.7059 N.pl3       1 MOL      -0.2442
      8 N21        -0.0988   54.0955    7.9036 N.2         1 MOL      -0.3319
      9 C18        -0.2389   52.9375    8.5707 C.ar        1 MOL      -0.0092
     10 C17         0.1092   52.5849    9.8863 C.ar        1 MOL      -0.0531
     11 C16        -0.1649   51.2743   10.3312 C.ar        1 MOL      -0.0414
     12 N12        -2.1638   48.8828   10.6084 N.am        1 MOL      -0.2325
     13 C8         -2.5583   47.7016   11.1517 C.ar        1 MOL       0.0706
     14 C7         -1.9868   47.2176   12.3517 C.ar        1 MOL      -0.0238
     15 C9         -3.5704   46.9574   10.5143 C.ar        1 MOL      -0.0372
     16 C10        -3.9645   45.7136   11.0345 C.ar        1 MOL      -0.0702
     17 C11        -3.3699   45.2190   12.2101 C.ar        1 MOL      -0.0591
     18 C6         -2.3910   45.9762   12.8920 C.ar        1 MOL       0.0268
     19 C2         -1.8503   45.4963   14.1034 C.2         1 MOL       0.1822
     20 N3         -1.8992   46.0538   15.3149 N.pl3       1 MOL      -0.1510
     21 N4         -1.3638   45.2553   16.1242 N.2         1 MOL      -0.0636
     22 N5         -0.9794   44.2531   15.5311 N.2         1 MOL      -0.1383
     23 N1         -1.2504   44.3190   14.2989 N.2         1 MOL      -0.2073
     24 H1         -1.5804   50.0475    7.5050 H           1 MOL       0.0680
     25 H2         -1.4765   52.3151    5.6808 H           1 MOL       0.1370
     26 H3         -0.6008   54.6250    6.0245 H           1 MOL       0.2935
     27 H4          0.5466   53.2661   10.5108 H           1 MOL       0.0630
     28 H5          0.0758   51.0132   11.2923 H           1 MOL       0.0669
     29 H6         -2.7750   49.6326   10.6767 H           1 MOL       0.2252
     30 H7         -1.2667   47.7728   12.8211 H           1 MOL       0.0543
     31 H8         -4.0023   47.3045    9.6541 H           1 MOL       0.0536
     32 H9         -4.6859   45.1685   10.5601 H           1 MOL       0.0588
     33 H10        -3.6863   44.3197   12.5826 H           1 MOL       0.0535
     34 H11        -2.3580   46.8715   15.5657 H           1 MOL       0.2708
@<TRIPOS>BOND
     1     1     2   2
     2     2     3   1
     3     2    12  am
     4     3     4  ar
     5     3    11  ar
     6     4     5  ar
     7     5     6   2
     8     5     9  ar
     9     6     7   1
    10     7     8   1
    11     8     9   2
    12     9    10  ar
    13    10    11  ar
    14    12    13   1
    15    13    14  ar
    16    13    15  ar
    17    14    18  ar
    18    15    16  ar
    19    16    17  ar
    20    17    18  ar
    21    18    19   1
    22    19    20   1
    23    19    23   2
    24    20    21   1
    25    21    22   2
    26    22    23   1
    27     4    24   1
    28     6    25   1
    29     7    26   1
    30    10    27   1
    31    11    28   1
    32    12    29   1
    33    14    30   1
    34    15    31   1
    35    16    32   1
    36    17    33   1
    37    20    34   1
@<TRIPOS>SUBSTRUCTURE
     1  MOL      2

