@<TRIPOS>MOLECULE
4de1_ligand_057
    34    37
SMALL
GAST_HUCK
****
This file was generated by PARSER (from files_GN.cpp)

@<TRIPOS>ATOM
      1 O14        -1.7413   50.9446   13.5179 O.2         1 MOL      -0.3730
      2 C13        -2.9081   50.5801   13.5721 C.2         1 MOL       0.2323
      3 C15        -3.8875   51.5312   13.8009 C.ar        1 MOL       0.0570
      4 C20        -3.9475   52.6958   12.9963 C.ar        1 MOL      -0.0265
      5 C19        -4.9648   53.6364   13.2412 C.ar        1 MOL       0.0384
      6 C23        -5.3185   54.8169   12.6173 C.2         1 MOL       0.1104
      7 N22        -6.3879   55.2956   13.2778 N.pl3       1 MOL      -0.2442
      8 N21        -6.7314   54.5148   14.2594 N.2         1 MOL      -0.3319
      9 C18        -5.8792   53.4719   14.2768 C.ar        1 MOL      -0.0092
     10 C17        -5.8188   52.3436   15.1081 C.ar        1 MOL      -0.0531
     11 C16        -4.8317   51.3659   14.8500 C.ar        1 MOL      -0.0414
     12 N12        -3.2476   49.3044   13.4638 N.am        1 MOL      -0.2325
     13 C8         -2.3895   48.2666   13.3231 C.ar        1 MOL       0.0706
     14 C7         -1.7971   47.9538   12.0795 C.ar        1 MOL      -0.0238
     15 C9         -2.1560   47.4333   14.4331 C.ar        1 MOL      -0.0372
     16 C10        -1.3368   46.3008   14.3092 C.ar        1 MOL      -0.0702
     17 C11        -0.7546   45.9914   13.0684 C.ar        1 MOL      -0.0591
     18 C6         -0.9684   46.8146   11.9361 C.ar        1 MOL       0.0268
     19 C2         -0.3855   46.4728   10.6915 C.2         1 MOL       0.1822
     20 N3         -0.4307   47.1372    9.5365 N.pl3       1 MOL      -0.1510
     21 N4          0.2253   46.4859    8.6889 N.2         1 MOL      -0.0636
     22 N5          0.6669   45.4601    9.1968 N.2         1 MOL      -0.1383
     23 N1          0.3379   45.3847   10.4113 N.2         1 MOL      -0.2073
     24 H1         -3.2918   52.8501   12.2249 H           1 MOL       0.0680
     25 H2         -4.8668   55.2334   11.7994 H           1 MOL       0.1370
     26 H3         -6.8545   56.1136   13.0408 H           1 MOL       0.2935
     27 H4         -6.4789   52.2307   15.8809 H           1 MOL       0.0630
     28 H5         -4.7865   50.5431   15.4540 H           1 MOL       0.0669
     29 H6         -4.1927   49.0884   13.5446 H           1 MOL       0.2252
     30 H7         -1.9968   48.5557   11.2723 H           1 MOL       0.0543
     31 H8         -2.5786   47.6519   15.3366 H           1 MOL       0.0536
     32 H9         -1.1771   45.6974   15.1167 H           1 MOL       0.0588
     33 H10        -0.1681   45.1557   13.0058 H           1 MOL       0.0535
     34 H11        -0.8710   47.9844    9.3767 H           1 MOL       0.2708
@<TRIPOS>BOND
     1     1     2   2
     2     2     3   1
     3     2    12  am
     4     3     4  ar
     5     3    11  ar
     6     4     5  ar
     7     5     6   2
     8     5     9  ar
     9     6     7   1
    10     7     8   1
    11     8     9   2
    12     9    10  ar
    13    10    11  ar
    14    12    13   1
    15    13    14  ar
    16    13    15  ar
    17    14    18  ar
    18    15    16  ar
    19    16    17  ar
    20    17    18  ar
    21    18    19   1
    22    19    20   1
    23    19    23   2
    24    20    21   1
    25    21    22   2
    26    22    23   1
    27     4    24   1
    28     6    25   1
    29     7    26   1
    30    10    27   1
    31    11    28   1
    32    12    29   1
    33    14    30   1
    34    15    31   1
    35    16    32   1
    36    17    33   1
    37    20    34   1
@<TRIPOS>SUBSTRUCTURE
     1  MOL      2

