@<TRIPOS>MOLECULE
4de1_ligand_024
    34    37
SMALL
GAST_HUCK
****
This file was generated by PARSER (from files_GN.cpp)

@<TRIPOS>ATOM
      1 O14        -1.1719   50.7470   10.4226 O.2         1 MOL      -0.3730
      2 C13        -1.8557   51.2724    9.5452 C.2         1 MOL       0.2323
      3 C15        -1.9248   50.6697    8.2908 C.ar        1 MOL       0.0570
      4 C20        -1.9795   49.2514    8.1667 C.ar        1 MOL      -0.0265
      5 C19        -2.0539   48.6788    6.8855 C.ar        1 MOL       0.0384
      6 C23        -2.1474   47.3725    6.4289 C.2         1 MOL       0.1104
      7 N22        -2.1871   47.4328    5.0842 N.pl3       1 MOL      -0.2442
      8 N21        -2.1345   48.6619    4.6660 N.2         1 MOL      -0.3319
      9 C18        -2.0556   49.4657    5.7396 C.ar        1 MOL      -0.0092
     10 C17        -1.9940   50.8635    5.8303 C.ar        1 MOL      -0.0531
     11 C16        -1.9399   51.4588    7.1087 C.ar        1 MOL      -0.0414
     12 N12        -2.6193   52.3301    9.8227 N.am        1 MOL      -0.2325
     13 C8         -2.7453   52.9751   11.0255 C.ar        1 MOL       0.0706
     14 C7         -4.0359   53.4058   11.4104 C.ar        1 MOL      -0.0238
     15 C9         -1.6497   53.2401   11.8825 C.ar        1 MOL      -0.0372
     16 C10        -1.8516   53.8611   13.1255 C.ar        1 MOL      -0.0702
     17 C11        -3.1461   54.2095   13.5285 C.ar        1 MOL      -0.0591
     18 C6         -4.2467   54.0121   12.6696 C.ar        1 MOL       0.0268
     19 C2         -5.5226   54.3993   13.1036 C.2         1 MOL       0.1822
     20 N3         -6.1833   55.5289   12.8356 N.pl3       1 MOL      -0.1510
     21 N4         -7.2369   55.5318   13.5175 N.2         1 MOL      -0.0636
     22 N5         -7.3025   54.4935   14.1783 N.2         1 MOL      -0.1383
     23 N1         -6.2895   53.7632   14.0036 N.2         1 MOL      -0.2073
     24 H1         -1.9933   48.6389    8.9875 H           1 MOL       0.0680
     25 H2         -2.1828   46.5239    6.9939 H           1 MOL       0.1370
     26 H3         -2.2434   46.6559    4.5034 H           1 MOL       0.2935
     27 H4         -1.9951   51.4387    4.9857 H           1 MOL       0.0630
     28 H5         -1.8867   52.4759    7.1627 H           1 MOL       0.0669
     29 H6         -3.2513   52.5871    9.1369 H           1 MOL       0.2252
     30 H7         -4.8378   53.2306   10.7992 H           1 MOL       0.0543
     31 H8         -0.7008   52.9824   11.6013 H           1 MOL       0.0536
     32 H9         -1.0597   54.0502   13.7402 H           1 MOL       0.0588
     33 H10        -3.2789   54.6219   14.4535 H           1 MOL       0.0535
     34 H11        -5.8657   56.2574   12.2759 H           1 MOL       0.2708
@<TRIPOS>BOND
     1     1     2   2
     2     2     3   1
     3     2    12  am
     4     3     4  ar
     5     3    11  ar
     6     4     5  ar
     7     5     6   2
     8     5     9  ar
     9     6     7   1
    10     7     8   1
    11     8     9   2
    12     9    10  ar
    13    10    11  ar
    14    12    13   1
    15    13    14  ar
    16    13    15  ar
    17    14    18  ar
    18    15    16  ar
    19    16    17  ar
    20    17    18  ar
    21    18    19   1
    22    19    20   1
    23    19    23   2
    24    20    21   1
    25    21    22   2
    26    22    23   1
    27     4    24   1
    28     6    25   1
    29     7    26   1
    30    10    27   1
    31    11    28   1
    32    12    29   1
    33    14    30   1
    34    15    31   1
    35    16    32   1
    36    17    33   1
    37    20    34   1
@<TRIPOS>SUBSTRUCTURE
     1  MOL      2

