@<TRIPOS>MOLECULE
4de1_ligand_037
    34    37
SMALL
GAST_HUCK
****
This file was generated by PARSER (from files_GN.cpp)

@<TRIPOS>ATOM
      1 O14        -6.6311   54.7309    9.3104 O.2         1 MOL      -0.3730
      2 C13        -7.5348   54.6500    8.4762 C.2         1 MOL       0.2323
      3 C15        -7.4865   55.4894    7.3522 C.ar        1 MOL       0.0570
      4 C20        -8.6720   55.9308    6.6973 C.ar        1 MOL      -0.0265
      5 C19        -8.5769   56.8006    5.6016 C.ar        1 MOL       0.0384
      6 C23        -9.5209   57.4251    4.8031 C.2         1 MOL       0.1104
      7 N22        -8.8456   58.1942    3.9336 N.pl3       1 MOL      -0.2442
      8 N21        -7.5631   58.1113    4.1249 N.2         1 MOL      -0.3319
      9 C18        -7.3488   57.2413    5.1239 C.ar        1 MOL      -0.0092
     10 C17        -6.1542   56.7921    5.7095 C.ar        1 MOL      -0.0531
     11 C16        -6.2340   55.9343    6.8275 C.ar        1 MOL      -0.0414
     12 N12        -8.5603   53.8254    8.7013 N.am        1 MOL      -0.2325
     13 C8         -8.7392   52.9044    9.7114 C.ar        1 MOL       0.0706
     14 C7         -7.7475   51.9757   10.1072 C.ar        1 MOL      -0.0238
     15 C9        -10.0035   52.8402   10.3445 C.ar        1 MOL      -0.0372
     16 C10       -10.2469   51.9280   11.3816 C.ar        1 MOL      -0.0702
     17 C11        -9.2295   51.0558   11.8111 C.ar        1 MOL      -0.0591
     18 C6         -7.9766   51.0590   11.1583 C.ar        1 MOL       0.0268
     19 C2         -6.9496   50.1924   11.5754 C.2         1 MOL       0.1822
     20 N3         -6.5416   49.0732   10.9770 N.pl3       1 MOL      -0.1510
     21 N4         -5.5635   48.6254   11.6287 N.2         1 MOL      -0.0636
     22 N5         -5.3281   49.3708   12.5840 N.2         1 MOL      -0.1383
     23 N1         -6.1274   50.3528   12.6135 N.2         1 MOL      -0.2073
     24 H1         -9.5965   55.6473    7.0179 H           1 MOL       0.0680
     25 H2        -10.5335   57.3453    4.8766 H           1 MOL       0.1370
     26 H3         -9.2605   58.7637    3.2700 H           1 MOL       0.2935
     27 H4         -5.2468   57.1143    5.3553 H           1 MOL       0.0630
     28 H5         -5.3502   55.6392    7.2514 H           1 MOL       0.0669
     29 H6         -9.3015   53.8941    8.0868 H           1 MOL       0.2252
     30 H7         -6.8471   51.9604    9.6264 H           1 MOL       0.0543
     31 H8        -10.7524   53.4815   10.0600 H           1 MOL       0.0536
     32 H9        -11.1704   51.8906   11.8249 H           1 MOL       0.0588
     33 H10        -9.4226   50.4027   12.5760 H           1 MOL       0.0535
     34 H11        -6.9422   48.6548   10.1921 H           1 MOL       0.2708
@<TRIPOS>BOND
     1     1     2   2
     2     2     3   1
     3     2    12  am
     4     3     4  ar
     5     3    11  ar
     6     4     5  ar
     7     5     6   2
     8     5     9  ar
     9     6     7   1
    10     7     8   1
    11     8     9   2
    12     9    10  ar
    13    10    11  ar
    14    12    13   1
    15    13    14  ar
    16    13    15  ar
    17    14    18  ar
    18    15    16  ar
    19    16    17  ar
    20    17    18  ar
    21    18    19   1
    22    19    20   1
    23    19    23   2
    24    20    21   1
    25    21    22   2
    26    22    23   1
    27     4    24   1
    28     6    25   1
    29     7    26   1
    30    10    27   1
    31    11    28   1
    32    12    29   1
    33    14    30   1
    34    15    31   1
    35    16    32   1
    36    17    33   1
    37    20    34   1
@<TRIPOS>SUBSTRUCTURE
     1  MOL      2

