@<TRIPOS>MOLECULE
4de1_ligand_086
    34    37
SMALL
GAST_HUCK
****
This file was generated by PARSER (from files_GN.cpp)

@<TRIPOS>ATOM
      1 O14        -8.1258   54.5561    9.4192 O.2         1 MOL      -0.3730
      2 C13        -8.7407   54.4284   10.4922 C.2         1 MOL       0.2323
      3 C15        -8.1641   53.6957   11.4983 C.ar        1 MOL       0.0570
      4 C20        -7.6524   54.3211   12.6685 C.ar        1 MOL      -0.0265
      5 C19        -7.0416   53.5078   13.6453 C.ar        1 MOL       0.0384
      6 C23        -6.4503   53.7612   14.8739 C.2         1 MOL       0.1104
      7 N22        -6.0653   52.5603   15.3603 N.pl3       1 MOL      -0.2442
      8 N21        -6.3573   51.5927   14.5497 N.2         1 MOL      -0.3319
      9 C18        -6.9585   52.1223   13.4773 C.ar        1 MOL      -0.0092
     10 C17        -7.4256   51.4992   12.3182 C.ar        1 MOL      -0.0531
     11 C16        -8.0450   52.2884   11.3311 C.ar        1 MOL      -0.0414
     12 N12        -9.8847   55.0568   10.7572 N.am        1 MOL      -0.2325
     13 C8        -10.6566   55.7558    9.8695 C.ar        1 MOL       0.0706
     14 C7        -11.1055   57.0432   10.2431 C.ar        1 MOL      -0.0238
     15 C9        -11.0818   55.2086    8.6388 C.ar        1 MOL      -0.0372
     16 C10       -11.9640   55.9181    7.8129 C.ar        1 MOL      -0.0702
     17 C11       -12.4035   57.1962    8.1759 C.ar        1 MOL      -0.0591
     18 C6        -11.9806   57.7678    9.4028 C.ar        1 MOL       0.0268
     19 C2        -12.3977   59.0672    9.7790 C.2         1 MOL       0.1822
     20 N3        -13.4954   59.7405    9.3951 N.pl3       1 MOL      -0.1510
     21 N4        -13.4567   60.8759    9.9162 N.2         1 MOL      -0.0636
     22 N5        -12.4295   61.0071   10.5849 N.2         1 MOL      -0.1383
     23 N1        -11.7355   59.9518   10.5418 N.2         1 MOL      -0.2073
     24 H1         -7.6981   55.3415   12.7867 H           1 MOL       0.0680
     25 H2         -6.3082   54.6737   15.3149 H           1 MOL       0.1370
     26 H3         -5.6260   52.4276   16.2125 H           1 MOL       0.2935
     27 H4         -7.3331   50.4911   12.2022 H           1 MOL       0.0630
     28 H5         -8.4224   51.8364   10.4914 H           1 MOL       0.0669
     29 H6        -10.2396   54.9953   11.6687 H           1 MOL       0.2252
     30 H7        -10.7898   57.4527   11.1345 H           1 MOL       0.0543
     31 H8        -10.7776   54.2784    8.3629 H           1 MOL       0.0536
     32 H9        -12.2589   55.5153    6.9231 H           1 MOL       0.0588
     33 H10       -13.0429   57.7066    7.5537 H           1 MOL       0.0535
     34 H11       -14.2133   59.3905    8.8430 H           1 MOL       0.2708
@<TRIPOS>BOND
     1     1     2   2
     2     2     3   1
     3     2    12  am
     4     3     4  ar
     5     3    11  ar
     6     4     5  ar
     7     5     6   2
     8     5     9  ar
     9     6     7   1
    10     7     8   1
    11     8     9   2
    12     9    10  ar
    13    10    11  ar
    14    12    13   1
    15    13    14  ar
    16    13    15  ar
    17    14    18  ar
    18    15    16  ar
    19    16    17  ar
    20    17    18  ar
    21    18    19   1
    22    19    20   1
    23    19    23   2
    24    20    21   1
    25    21    22   2
    26    22    23   1
    27     4    24   1
    28     6    25   1
    29     7    26   1
    30    10    27   1
    31    11    28   1
    32    12    29   1
    33    14    30   1
    34    15    31   1
    35    16    32   1
    36    17    33   1
    37    20    34   1
@<TRIPOS>SUBSTRUCTURE
     1  MOL      2

