@<TRIPOS>MOLECULE
4de1_ligand_071
    34    37
SMALL
GAST_HUCK
****
This file was generated by PARSER (from files_GN.cpp)

@<TRIPOS>ATOM
      1 O14        -7.8665   54.5122    8.8800 O.2         1 MOL      -0.3730
      2 C13        -7.9581   55.5826    8.2862 C.2         1 MOL       0.2323
      3 C15        -7.4525   55.6060    7.0046 C.ar        1 MOL       0.0570
      4 C20        -8.2324   55.1258    5.9227 C.ar        1 MOL      -0.0265
      5 C19        -7.6547   55.0678    4.6431 C.ar        1 MOL       0.0384
      6 C23        -8.1163   54.6308    3.4120 C.2         1 MOL       0.1104
      7 N22        -7.1035   54.7743    2.5415 N.pl3       1 MOL      -0.2442
      8 N21        -6.0480   55.2657    3.1218 N.2         1 MOL      -0.3319
      9 C18        -6.3418   55.4720    4.4158 C.ar        1 MOL      -0.0092
     10 C17        -5.5579   55.9693    5.4695 C.ar        1 MOL      -0.0531
     11 C16        -6.1148   56.0202    6.7675 C.ar        1 MOL      -0.0414
     12 N12        -8.5838   56.6402    8.7872 N.am        1 MOL      -0.2325
     13 C8         -9.1063   56.8109   10.0513 C.ar        1 MOL       0.0706
     14 C7        -10.1344   57.7663   10.2133 C.ar        1 MOL      -0.0238
     15 C9         -8.6480   56.1245   11.2053 C.ar        1 MOL      -0.0372
     16 C10        -9.2738   56.3033   12.4499 C.ar        1 MOL      -0.0702
     17 C11       -10.3492   57.1921   12.5724 C.ar        1 MOL      -0.0591
     18 C6        -10.7746   57.9573   11.4638 C.ar        1 MOL       0.0268
     19 C2        -11.8230   58.8894   11.6203 C.2         1 MOL       0.1822
     20 N3        -12.0361   60.0008   10.9178 N.pl3       1 MOL      -0.1510
     21 N4        -13.0548   60.5691   11.3910 N.2         1 MOL      -0.0636
     22 N5        -13.4991   59.9098   12.3264 N.2         1 MOL      -0.1383
     23 N1        -12.8002   58.8773   12.5341 N.2         1 MOL      -0.2073
     24 H1         -9.1886   54.7957    6.0664 H           1 MOL       0.0680
     25 H2         -9.0462   54.2644    3.2073 H           1 MOL       0.1370
     26 H3         -7.1532   54.5400    1.6000 H           1 MOL       0.2935
     27 H4         -4.5956   56.2694    5.2999 H           1 MOL       0.0630
     28 H5         -5.5272   56.3426    7.5390 H           1 MOL       0.0669
     29 H6         -8.7603   57.3633    8.1570 H           1 MOL       0.2252
     30 H7        -10.4476   58.3045    9.3966 H           1 MOL       0.0543
     31 H8         -7.8471   55.4992   11.1624 H           1 MOL       0.0536
     32 H9         -8.9537   55.7772   13.2706 H           1 MOL       0.0588
     33 H10       -10.7914   57.3077   13.4898 H           1 MOL       0.0535
     34 H11       -11.4736   60.3485   10.2023 H           1 MOL       0.2708
@<TRIPOS>BOND
     1     1     2   2
     2     2     3   1
     3     2    12  am
     4     3     4  ar
     5     3    11  ar
     6     4     5  ar
     7     5     6   2
     8     5     9  ar
     9     6     7   1
    10     7     8   1
    11     8     9   2
    12     9    10  ar
    13    10    11  ar
    14    12    13   1
    15    13    14  ar
    16    13    15  ar
    17    14    18  ar
    18    15    16  ar
    19    16    17  ar
    20    17    18  ar
    21    18    19   1
    22    19    20   1
    23    19    23   2
    24    20    21   1
    25    21    22   2
    26    22    23   1
    27     4    24   1
    28     6    25   1
    29     7    26   1
    30    10    27   1
    31    11    28   1
    32    12    29   1
    33    14    30   1
    34    15    31   1
    35    16    32   1
    36    17    33   1
    37    20    34   1
@<TRIPOS>SUBSTRUCTURE
     1  MOL      2

