@<TRIPOS>MOLECULE
4de1_ligand_063
    34    37
SMALL
GAST_HUCK
****
This file was generated by PARSER (from files_GN.cpp)

@<TRIPOS>ATOM
      1 O14        -6.0254   53.5441    7.0209 O.2         1 MOL      -0.3730
      2 C13        -5.7842   53.4322    5.8251 C.2         1 MOL       0.2323
      3 C15        -6.5008   54.2387    4.9298 C.ar        1 MOL       0.0570
      4 C20        -7.0625   55.4687    5.3660 C.ar        1 MOL      -0.0265
      5 C19        -7.8091   56.2555    4.4697 C.ar        1 MOL       0.0384
      6 C23        -8.4590   57.4711    4.5875 C.2         1 MOL       0.1104
      7 N22        -9.0150   57.7336    3.3924 N.pl3       1 MOL      -0.2442
      8 N21        -8.7643   56.7823    2.5402 N.2         1 MOL      -0.3319
      9 C18        -8.0175   55.8469    3.1598 C.ar        1 MOL      -0.0092
     10 C17        -7.4696   54.6445    2.6889 C.ar        1 MOL      -0.0531
     11 C16        -6.7090   53.8482    3.5748 C.ar        1 MOL      -0.0414
     12 N12        -4.9120   52.5197    5.4033 N.am        1 MOL      -0.2325
     13 C8         -4.1364   51.6405    6.1192 C.ar        1 MOL       0.0706
     14 C7         -3.6651   51.8667    7.4336 C.ar        1 MOL      -0.0238
     15 C9         -3.7605   50.4493    5.4665 C.ar        1 MOL      -0.0372
     16 C10        -2.9813   49.4841    6.1288 C.ar        1 MOL      -0.0702
     17 C11        -2.5556   49.7009    7.4485 C.ar        1 MOL      -0.0591
     18 C6         -2.8895   50.8990    8.1197 C.ar        1 MOL       0.0268
     19 C2         -2.4590   51.1190    9.4565 C.2         1 MOL       0.1822
     20 N3         -2.6152   52.2135   10.2058 N.pl3       1 MOL      -0.1510
     21 N4         -2.0940   51.9940   11.3284 N.2         1 MOL      -0.0636
     22 N5         -1.6239   50.8605   11.3544 N.2         1 MOL      -0.1383
     23 N1         -1.8046   50.2667   10.2534 N.2         1 MOL      -0.2073
     24 H1         -6.9295   55.8098    6.3219 H           1 MOL       0.0680
     25 H2         -8.5100   58.0629    5.4205 H           1 MOL       0.1370
     26 H3         -9.5288   58.5331    3.1910 H           1 MOL       0.2935
     27 H4         -7.6237   54.3461    1.7218 H           1 MOL       0.0630
     28 H5         -6.3376   52.9642    3.2224 H           1 MOL       0.0669
     29 H6         -4.8410   52.4276    4.4381 H           1 MOL       0.2252
     30 H7         -3.8750   52.7536    7.8949 H           1 MOL       0.0543
     31 H8         -4.0661   50.2613    4.5110 H           1 MOL       0.0536
     32 H9         -2.7292   48.6103    5.6475 H           1 MOL       0.0588
     33 H10        -1.9966   48.9783    7.9067 H           1 MOL       0.0535
     34 H11        -3.0380   53.0351    9.9359 H           1 MOL       0.2708
@<TRIPOS>BOND
     1     1     2   2
     2     2     3   1
     3     2    12  am
     4     3     4  ar
     5     3    11  ar
     6     4     5  ar
     7     5     6   2
     8     5     9  ar
     9     6     7   1
    10     7     8   1
    11     8     9   2
    12     9    10  ar
    13    10    11  ar
    14    12    13   1
    15    13    14  ar
    16    13    15  ar
    17    14    18  ar
    18    15    16  ar
    19    16    17  ar
    20    17    18  ar
    21    18    19   1
    22    19    20   1
    23    19    23   2
    24    20    21   1
    25    21    22   2
    26    22    23   1
    27     4    24   1
    28     6    25   1
    29     7    26   1
    30    10    27   1
    31    11    28   1
    32    12    29   1
    33    14    30   1
    34    15    31   1
    35    16    32   1
    36    17    33   1
    37    20    34   1
@<TRIPOS>SUBSTRUCTURE
     1  MOL      2

