@<TRIPOS>MOLECULE
4de1_ligand_062
    34    37
SMALL
GAST_HUCK
****
This file was generated by PARSER (from files_GN.cpp)

@<TRIPOS>ATOM
      1 O14        -6.5743   54.4271    9.6459 O.2         1 MOL      -0.3730
      2 C13        -6.5702   53.4282    8.9226 C.2         1 MOL       0.2323
      3 C15        -6.7692   53.5835    7.5492 C.ar        1 MOL       0.0570
      4 C20        -6.1692   54.6795    6.8605 C.ar        1 MOL      -0.0265
      5 C19        -6.3477   54.8113    5.4746 C.ar        1 MOL       0.0384
      6 C23        -5.9267   55.7505    4.5513 C.2         1 MOL       0.1104
      7 N22        -6.3914   55.3456    3.3597 N.pl3       1 MOL      -0.2442
      8 N21        -7.0726   54.2393    3.4617 N.2         1 MOL      -0.3319
      9 C18        -7.0792   53.8766    4.7499 C.ar        1 MOL      -0.0092
     10 C17        -7.6816   52.7866    5.3931 C.ar        1 MOL      -0.0531
     11 C16        -7.5220   52.6465    6.7804 C.ar        1 MOL      -0.0414
     12 N12        -6.4284   52.2231    9.4846 N.am        1 MOL      -0.2325
     13 C8         -5.9537   51.8952   10.7196 C.ar        1 MOL       0.0706
     14 C7         -4.9346   52.6047   11.3862 C.ar        1 MOL      -0.0238
     15 C9         -6.4132   50.6818   11.3031 C.ar        1 MOL      -0.0372
     16 C10        -5.8736   50.2287   12.5277 C.ar        1 MOL      -0.0702
     17 C11        -4.8463   50.9344   13.1552 C.ar        1 MOL      -0.0591
     18 C6         -4.3404   52.1377   12.5868 C.ar        1 MOL       0.0268
     19 C2         -3.2337   52.7948   13.1358 C.2         1 MOL       0.1822
     20 N3         -3.1245   54.0841   13.4709 N.pl3       1 MOL      -0.1510
     21 N4         -1.9541   54.2832   13.8664 N.2         1 MOL      -0.0636
     22 N5         -1.3054   53.2301   13.7929 N.2         1 MOL      -0.1383
     23 N1         -2.0218   52.2827   13.3594 N.2         1 MOL      -0.2073
     24 H1         -5.6117   55.3811    7.3496 H           1 MOL       0.0680
     25 H2         -5.3666   56.5919    4.7305 H           1 MOL       0.1370
     26 H3         -6.2475   55.8154    2.5265 H           1 MOL       0.2935
     27 H4         -8.2326   52.1066    4.8569 H           1 MOL       0.0630
     28 H5         -7.9808   51.8453    7.2256 H           1 MOL       0.0669
     29 H6         -6.6408   51.4632    8.9098 H           1 MOL       0.2252
     30 H7         -4.5410   53.4406   10.9436 H           1 MOL       0.0543
     31 H8         -7.1336   50.1240   10.8436 H           1 MOL       0.0536
     32 H9         -6.2251   49.3573   12.9322 H           1 MOL       0.0588
     33 H10        -4.4425   50.5669   14.0204 H           1 MOL       0.0535
     34 H11        -3.8343   54.7430   13.4121 H           1 MOL       0.2708
@<TRIPOS>BOND
     1     1     2   2
     2     2     3   1
     3     2    12  am
     4     3     4  ar
     5     3    11  ar
     6     4     5  ar
     7     5     6   2
     8     5     9  ar
     9     6     7   1
    10     7     8   1
    11     8     9   2
    12     9    10  ar
    13    10    11  ar
    14    12    13   1
    15    13    14  ar
    16    13    15  ar
    17    14    18  ar
    18    15    16  ar
    19    16    17  ar
    20    17    18  ar
    21    18    19   1
    22    19    20   1
    23    19    23   2
    24    20    21   1
    25    21    22   2
    26    22    23   1
    27     4    24   1
    28     6    25   1
    29     7    26   1
    30    10    27   1
    31    11    28   1
    32    12    29   1
    33    14    30   1
    34    15    31   1
    35    16    32   1
    36    17    33   1
    37    20    34   1
@<TRIPOS>SUBSTRUCTURE
     1  MOL      2

