@<TRIPOS>MOLECULE
4de1_ligand_051
    34    37
SMALL
GAST_HUCK
****
This file was generated by PARSER (from files_GN.cpp)

@<TRIPOS>ATOM
      1 O14       -12.4167   52.4840   11.3488 O.2         1 MOL      -0.3730
      2 C13       -11.5341   52.1936   10.5477 C.2         1 MOL       0.2323
      3 C15       -11.6197   51.0098    9.8496 C.ar        1 MOL       0.0570
      4 C20       -11.9253   49.7988   10.5195 C.ar        1 MOL      -0.0265
      5 C19       -11.9780   48.6070    9.7763 C.ar        1 MOL       0.0384
      6 C23       -12.2039   47.2858   10.1170 C.2         1 MOL       0.1104
      7 N22       -12.1316   46.5751    8.9753 N.pl3       1 MOL      -0.2442
      8 N21       -11.8690   47.3404    7.9583 N.2         1 MOL      -0.3319
      9 C18       -11.7612   48.6063    8.3998 C.ar        1 MOL      -0.0092
     10 C17       -11.4743   49.7946    7.7130 C.ar        1 MOL      -0.0531
     11 C16       -11.3921   50.9937    8.4466 C.ar        1 MOL      -0.0414
     12 N12       -10.4524   52.9491   10.3898 N.am        1 MOL      -0.2325
     13 C8        -10.2141   54.1532   10.9776 C.ar        1 MOL       0.0706
     14 C7         -9.0578   54.3167   11.7655 C.ar        1 MOL      -0.0238
     15 C9        -11.0709   55.2531   10.7681 C.ar        1 MOL      -0.0372
     16 C10       -10.7645   56.5075   11.3245 C.ar        1 MOL      -0.0702
     17 C11        -9.6031   56.6704   12.0976 C.ar        1 MOL      -0.0591
     18 C6         -8.7515   55.5725   12.3387 C.ar        1 MOL       0.0268
     19 C2         -7.6234   55.7114   13.1650 C.2         1 MOL       0.1822
     20 N3         -6.5271   56.4442   12.9685 N.pl3       1 MOL      -0.1510
     21 N4         -5.7586   56.2600   13.9470 N.2         1 MOL      -0.0636
     22 N5         -6.2877   55.4926   14.7494 N.2         1 MOL      -0.1383
     23 N1         -7.4267   55.1248   14.3508 N.2         1 MOL      -0.2073
     24 H1        -12.0737   49.7734   11.5301 H           1 MOL       0.0680
     25 H2        -12.3853   46.9126   11.0471 H           1 MOL       0.1370
     26 H3        -12.2455   45.6137    8.9221 H           1 MOL       0.2935
     27 H4        -11.3281   49.7899    6.6998 H           1 MOL       0.0630
     28 H5        -11.1845   51.8648    7.9446 H           1 MOL       0.0669
     29 H6         -9.7213   52.5522    9.8817 H           1 MOL       0.2252
     30 H7         -8.4338   53.5200   11.9186 H           1 MOL       0.0543
     31 H8        -11.9067   55.1542   10.1846 H           1 MOL       0.0536
     32 H9        -11.3853   57.3028   11.1580 H           1 MOL       0.0588
     33 H10        -9.4033   57.5867   12.5053 H           1 MOL       0.0535
     34 H11        -6.3154   56.9635   12.1793 H           1 MOL       0.2708
@<TRIPOS>BOND
     1     1     2   2
     2     2     3   1
     3     2    12  am
     4     3     4  ar
     5     3    11  ar
     6     4     5  ar
     7     5     6   2
     8     5     9  ar
     9     6     7   1
    10     7     8   1
    11     8     9   2
    12     9    10  ar
    13    10    11  ar
    14    12    13   1
    15    13    14  ar
    16    13    15  ar
    17    14    18  ar
    18    15    16  ar
    19    16    17  ar
    20    17    18  ar
    21    18    19   1
    22    19    20   1
    23    19    23   2
    24    20    21   1
    25    21    22   2
    26    22    23   1
    27     4    24   1
    28     6    25   1
    29     7    26   1
    30    10    27   1
    31    11    28   1
    32    12    29   1
    33    14    30   1
    34    15    31   1
    35    16    32   1
    36    17    33   1
    37    20    34   1
@<TRIPOS>SUBSTRUCTURE
     1  MOL      2

