@<TRIPOS>MOLECULE
4de1_ligand_019
    34    37
SMALL
GAST_HUCK
****
This file was generated by PARSER (from files_GN.cpp)

@<TRIPOS>ATOM
      1 O14       -12.8455   57.2666    9.9542 O.2         1 MOL      -0.3730
      2 C13       -12.4482   58.4282    9.9783 C.2         1 MOL       0.2323
      3 C15       -13.3902   59.4333   10.0130 C.ar        1 MOL       0.0570
      4 C20       -13.6311   60.1449   11.2175 C.ar        1 MOL      -0.0265
      5 C19       -14.6213   61.1425   11.2297 C.ar        1 MOL       0.0384
      6 C23       -15.1027   61.9961   12.2113 C.2         1 MOL       0.1104
      7 N22       -16.0459   62.7591   11.6299 N.pl3       1 MOL      -0.2442
      8 N21       -16.2047   62.4461   10.3787 N.2         1 MOL      -0.3319
      9 C18       -15.3494   61.4515   10.0855 C.ar        1 MOL      -0.0092
     10 C17       -15.1295   60.7629    8.8827 C.ar        1 MOL      -0.0531
     11 C16       -14.1555   59.7427    8.8559 C.ar        1 MOL      -0.0414
     12 N12       -11.1653   58.7440    9.9055 N.am        1 MOL      -0.2325
     13 C8        -10.1340   57.8590    9.9276 C.ar        1 MOL       0.0706
     14 C7         -9.6390   57.3862   11.1609 C.ar        1 MOL      -0.0238
     15 C9         -9.4899   57.4925    8.7300 C.ar        1 MOL      -0.0372
     16 C10        -8.3545   56.6606    8.7584 C.ar        1 MOL      -0.0702
     17 C11        -7.8350   56.2269    9.9900 C.ar        1 MOL      -0.0591
     18 C6         -8.4761   56.5824   11.1961 C.ar        1 MOL       0.0268
     19 C2         -7.9724   56.1337   12.4217 C.2         1 MOL       0.1822
     20 N3         -6.7451   56.3202   12.9061 N.pl3       1 MOL      -0.1510
     21 N4         -6.6919   55.7780   14.0328 N.2         1 MOL      -0.0636
     22 N5         -7.7816   55.2673   14.2897 N.2         1 MOL      -0.1383
     23 N1         -8.6225   55.4497   13.3647 N.2         1 MOL      -0.2073
     24 H1        -13.1182   59.9292   12.0783 H           1 MOL       0.0680
     25 H2        -14.7989   62.0516   13.1860 H           1 MOL       0.1370
     26 H3        -16.5479   63.4543   12.0832 H           1 MOL       0.2935
     27 H4        -15.6742   60.9876    8.0485 H           1 MOL       0.0630
     28 H5        -14.0044   59.2340    7.9803 H           1 MOL       0.0669
     29 H6        -10.9340   59.6898    9.8202 H           1 MOL       0.2252
     30 H7        -10.0934   57.6669   12.0378 H           1 MOL       0.0543
     31 H8         -9.8485   57.8219    7.8301 H           1 MOL       0.0536
     32 H9         -7.8930   56.4049    7.8828 H           1 MOL       0.0588
     33 H10        -6.9939   55.6436    9.9911 H           1 MOL       0.0535
     34 H11        -6.0389   56.8358   12.4883 H           1 MOL       0.2708
@<TRIPOS>BOND
     1     1     2   2
     2     2     3   1
     3     2    12  am
     4     3     4  ar
     5     3    11  ar
     6     4     5  ar
     7     5     6   2
     8     5     9  ar
     9     6     7   1
    10     7     8   1
    11     8     9   2
    12     9    10  ar
    13    10    11  ar
    14    12    13   1
    15    13    14  ar
    16    13    15  ar
    17    14    18  ar
    18    15    16  ar
    19    16    17  ar
    20    17    18  ar
    21    18    19   1
    22    19    20   1
    23    19    23   2
    24    20    21   1
    25    21    22   2
    26    22    23   1
    27     4    24   1
    28     6    25   1
    29     7    26   1
    30    10    27   1
    31    11    28   1
    32    12    29   1
    33    14    30   1
    34    15    31   1
    35    16    32   1
    36    17    33   1
    37    20    34   1
@<TRIPOS>SUBSTRUCTURE
     1  MOL      2

