@<TRIPOS>MOLECULE
4de1_ligand_053
    34    37
SMALL
GAST_HUCK
****
This file was generated by PARSER (from files_GN.cpp)

@<TRIPOS>ATOM
      1 O14        -1.4754   48.3447    9.9176 O.2         1 MOL      -0.3730
      2 C13        -0.3199   48.1146   10.2803 C.2         1 MOL       0.2323
      3 C15         0.1188   46.7921   10.3394 C.ar        1 MOL       0.0570
      4 C20        -0.8182   45.7111   10.3679 C.ar        1 MOL      -0.0265
      5 C19        -0.3561   44.3952   10.5210 C.ar        1 MOL       0.0384
      6 C23        -0.9789   43.1633   10.6287 C.2         1 MOL       0.1104
      7 N22        -0.0082   42.2437   10.7878 N.pl3       1 MOL      -0.2442
      8 N21         1.1661   42.7969   10.7759 N.2         1 MOL      -0.3319
      9 C18         1.0055   44.1175   10.6162 C.ar        1 MOL      -0.0092
     10 C17         1.9571   45.1435   10.5601 C.ar        1 MOL      -0.0531
     11 C16         1.5053   46.4679   10.4277 C.ar        1 MOL      -0.0414
     12 N12         0.4788   49.1372   10.5829 N.am        1 MOL      -0.2325
     13 C8          0.1760   50.4615   10.6332 C.ar        1 MOL       0.0706
     14 C7         -0.9378   50.9313   11.3689 C.ar        1 MOL      -0.0238
     15 C9          1.0410   51.3864   10.0206 C.ar        1 MOL      -0.0372
     16 C10         0.7880   52.7686   10.1261 C.ar        1 MOL      -0.0702
     17 C11        -0.2855   53.2286   10.9024 C.ar        1 MOL      -0.0591
     18 C6         -1.1593   52.3093   11.5335 C.ar        1 MOL       0.0268
     19 C2         -2.2176   52.7680   12.3320 C.2         1 MOL       0.1822
     20 N3         -2.2181   53.8451   13.1241 N.pl3       1 MOL      -0.1510
     21 N4         -3.3295   53.9098   13.6987 N.2         1 MOL      -0.0636
     22 N5         -4.0371   52.9642   13.3343 N.2         1 MOL      -0.1383
     23 N1         -3.4235   52.2190   12.5198 N.2         1 MOL      -0.2073
     24 H1         -1.8273   45.8767   10.2992 H           1 MOL       0.0680
     25 H2         -1.9815   42.9791   10.6097 H           1 MOL       0.1370
     26 H3         -0.1607   41.2936   10.8978 H           1 MOL       0.2935
     27 H4          2.9559   44.9302   10.6159 H           1 MOL       0.0630
     28 H5          2.2214   47.1972   10.3854 H           1 MOL       0.0669
     29 H6          1.4090   48.9294   10.7675 H           1 MOL       0.2252
     30 H7         -1.5448   50.2531   11.8324 H           1 MOL       0.0543
     31 H8          1.8522   51.0677    9.4799 H           1 MOL       0.0536
     32 H9          1.4113   53.4368    9.6575 H           1 MOL       0.0588
     33 H10        -0.4331   54.2377   10.9930 H           1 MOL       0.0535
     34 H11        -1.4675   54.4429   13.2652 H           1 MOL       0.2708
@<TRIPOS>BOND
     1     1     2   2
     2     2     3   1
     3     2    12  am
     4     3     4  ar
     5     3    11  ar
     6     4     5  ar
     7     5     6   2
     8     5     9  ar
     9     6     7   1
    10     7     8   1
    11     8     9   2
    12     9    10  ar
    13    10    11  ar
    14    12    13   1
    15    13    14  ar
    16    13    15  ar
    17    14    18  ar
    18    15    16  ar
    19    16    17  ar
    20    17    18  ar
    21    18    19   1
    22    19    20   1
    23    19    23   2
    24    20    21   1
    25    21    22   2
    26    22    23   1
    27     4    24   1
    28     6    25   1
    29     7    26   1
    30    10    27   1
    31    11    28   1
    32    12    29   1
    33    14    30   1
    34    15    31   1
    35    16    32   1
    36    17    33   1
    37    20    34   1
@<TRIPOS>SUBSTRUCTURE
     1  MOL      2

