@<TRIPOS>MOLECULE
4de1_ligand_010
    34    37
SMALL
GAST_HUCK
****
This file was generated by PARSER (from files_GN.cpp)

@<TRIPOS>ATOM
      1 O14        -8.1633   56.6784    7.2795 O.2         1 MOL      -0.3730
      2 C13        -9.3257   56.4648    6.9439 C.2         1 MOL       0.2323
      3 C15        -9.5713   55.9960    5.6659 C.ar        1 MOL       0.0570
      4 C20        -9.9355   54.6402    5.4544 C.ar        1 MOL      -0.0265
      5 C19       -10.1131   54.1818    4.1397 C.ar        1 MOL       0.0384
      6 C23       -10.3968   52.9383    3.6027 C.2         1 MOL       0.1104
      7 N22       -10.4278   53.0963    2.2688 N.pl3       1 MOL      -0.2442
      8 N21       -10.1909   54.3287    1.9286 N.2         1 MOL      -0.3319
      9 C18        -9.9878   55.0407    3.0497 C.ar        1 MOL      -0.0092
     10 C17        -9.6715   56.3976    3.2333 C.ar        1 MOL      -0.0531
     11 C16        -9.4489   56.8643    4.5434 C.ar        1 MOL      -0.0414
     12 N12       -10.3584   56.7588    7.7251 N.am        1 MOL      -0.2325
     13 C8        -10.3326   57.2248    9.0024 C.ar        1 MOL       0.0706
     14 C7         -9.4188   56.7505    9.9752 C.ar        1 MOL      -0.0238
     15 C9        -11.3294   58.1436    9.3909 C.ar        1 MOL      -0.0372
     16 C10       -11.4449   58.5481   10.7326 C.ar        1 MOL      -0.0702
     17 C11       -10.5777   58.0199   11.7037 C.ar        1 MOL      -0.0591
     18 C6         -9.5425   57.1265   11.3314 C.ar        1 MOL       0.0268
     19 C2         -8.7098   56.5608   12.3048 C.2         1 MOL       0.1822
     20 N3         -7.3801   56.6001   12.3922 N.pl3       1 MOL      -0.1510
     21 N4         -7.0448   55.9356   13.3997 N.2         1 MOL      -0.0636
     22 N5         -8.0522   55.4552   13.9413 N.2         1 MOL      -0.1383
     23 N1         -9.0990   55.7913   13.3381 N.2         1 MOL      -0.2073
     24 H1        -10.0215   53.9756    6.2335 H           1 MOL       0.0680
     25 H2        -10.5360   52.0653    4.1122 H           1 MOL       0.1370
     26 H3        -10.5928   52.3780    1.6359 H           1 MOL       0.2935
     27 H4         -9.5874   57.0297    2.4315 H           1 MOL       0.0630
     28 H5         -9.2056   57.8489    4.6785 H           1 MOL       0.0669
     29 H6        -11.2337   56.7130    7.3001 H           1 MOL       0.2252
     30 H7         -8.7189   56.0591    9.7042 H           1 MOL       0.0543
     31 H8        -11.9849   58.5185    8.6992 H           1 MOL       0.0536
     32 H9        -12.1715   59.2194   11.0050 H           1 MOL       0.0588
     33 H10       -10.6925   58.3077   12.6803 H           1 MOL       0.0535
     34 H11        -6.7621   57.0976   11.8228 H           1 MOL       0.2708
@<TRIPOS>BOND
     1     1     2   2
     2     2     3   1
     3     2    12  am
     4     3     4  ar
     5     3    11  ar
     6     4     5  ar
     7     5     6   2
     8     5     9  ar
     9     6     7   1
    10     7     8   1
    11     8     9   2
    12     9    10  ar
    13    10    11  ar
    14    12    13   1
    15    13    14  ar
    16    13    15  ar
    17    14    18  ar
    18    15    16  ar
    19    16    17  ar
    20    17    18  ar
    21    18    19   1
    22    19    20   1
    23    19    23   2
    24    20    21   1
    25    21    22   2
    26    22    23   1
    27     4    24   1
    28     6    25   1
    29     7    26   1
    30    10    27   1
    31    11    28   1
    32    12    29   1
    33    14    30   1
    34    15    31   1
    35    16    32   1
    36    17    33   1
    37    20    34   1
@<TRIPOS>SUBSTRUCTURE
     1  MOL      2

