@<TRIPOS>MOLECULE
4de1_ligand_041
    34    37
SMALL
GAST_HUCK
****
This file was generated by PARSER (from files_GN.cpp)

@<TRIPOS>ATOM
      1 O14        -2.2207   54.1824   11.9521 O.2         1 MOL      -0.3730
      2 C13        -2.2018   53.4596   10.9610 C.2         1 MOL       0.2323
      3 C15        -1.1741   53.5932   10.0324 C.ar        1 MOL       0.0570
      4 C20         0.1328   53.9554   10.4531 C.ar        1 MOL      -0.0265
      5 C19         1.1472   54.0864    9.4951 C.ar        1 MOL       0.0384
      6 C23         2.4968   54.3739    9.5804 C.2         1 MOL       0.1104
      7 N22         2.9713   54.3625    8.3247 N.pl3       1 MOL      -0.2442
      8 N21         2.0345   54.0897    7.4658 N.2         1 MOL      -0.3319
      9 C18         0.8923   53.9067    8.1413 C.ar        1 MOL      -0.0092
     10 C17        -0.3871   53.5614    7.6883 C.ar        1 MOL      -0.0531
     11 C16        -1.4128   53.3928    8.6391 C.ar        1 MOL      -0.0414
     12 N12        -3.1158   52.5119   10.7929 N.am        1 MOL      -0.2325
     13 C8         -4.2449   52.2812   11.5182 C.ar        1 MOL       0.0706
     14 C7         -5.1462   53.3077   11.8892 C.ar        1 MOL      -0.0238
     15 C9         -4.5692   50.9419   11.8263 C.ar        1 MOL      -0.0372
     16 C10        -5.7581   50.6363   12.5075 C.ar        1 MOL      -0.0702
     17 C11        -6.6560   51.6598   12.8495 C.ar        1 MOL      -0.0591
     18 C6         -6.3641   53.0097   12.5427 C.ar        1 MOL       0.0268
     19 C2         -7.2912   54.0368   12.8443 C.2         1 MOL       0.1822
     20 N3         -7.1494   55.3606   12.7227 N.pl3       1 MOL      -0.1510
     21 N4         -8.2239   55.9039   13.0837 N.2         1 MOL      -0.0636
     22 N5         -9.0315   55.0412   13.4170 N.2         1 MOL      -0.1383
     23 N1         -8.5383   53.8867   13.2989 N.2         1 MOL      -0.2073
     24 H1          0.3528   54.0999   11.4409 H           1 MOL       0.0680
     25 H2          3.0386   54.5388   10.4285 H           1 MOL       0.1370
     26 H3          3.8986   54.5167    8.0884 H           1 MOL       0.2935
     27 H4         -0.5696   53.4333    6.6931 H           1 MOL       0.0630
     28 H5         -2.3479   53.1416    8.2977 H           1 MOL       0.0669
     29 H6         -2.9400   51.8791   10.0795 H           1 MOL       0.2252
     30 H7         -4.9357   54.2765   11.6310 H           1 MOL       0.0543
     31 H8         -3.9361   50.1776   11.5649 H           1 MOL       0.0536
     32 H9         -5.9767   49.6653   12.7418 H           1 MOL       0.0588
     33 H10        -7.5265   51.4099   13.3172 H           1 MOL       0.0535
     34 H11        -6.3670   55.8317   12.3936 H           1 MOL       0.2708
@<TRIPOS>BOND
     1     1     2   2
     2     2     3   1
     3     2    12  am
     4     3     4  ar
     5     3    11  ar
     6     4     5  ar
     7     5     6   2
     8     5     9  ar
     9     6     7   1
    10     7     8   1
    11     8     9   2
    12     9    10  ar
    13    10    11  ar
    14    12    13   1
    15    13    14  ar
    16    13    15  ar
    17    14    18  ar
    18    15    16  ar
    19    16    17  ar
    20    17    18  ar
    21    18    19   1
    22    19    20   1
    23    19    23   2
    24    20    21   1
    25    21    22   2
    26    22    23   1
    27     4    24   1
    28     6    25   1
    29     7    26   1
    30    10    27   1
    31    11    28   1
    32    12    29   1
    33    14    30   1
    34    15    31   1
    35    16    32   1
    36    17    33   1
    37    20    34   1
@<TRIPOS>SUBSTRUCTURE
     1  MOL      2

