@<TRIPOS>MOLECULE
4de1_ligand_011
    34    37
SMALL
GAST_HUCK
****
This file was generated by PARSER (from files_GN.cpp)

@<TRIPOS>ATOM
      1 O14       -12.5513   53.6232   10.9769 O.2         1 MOL      -0.3730
      2 C13       -12.4485   53.5032    9.7570 C.2         1 MOL       0.2323
      3 C15       -13.1295   52.4540    9.1283 C.ar        1 MOL       0.0570
      4 C20       -13.5057   52.5162    7.7561 C.ar        1 MOL      -0.0265
      5 C19       -14.1944   51.4359    7.1741 C.ar        1 MOL       0.0384
      6 C23       -14.7107   51.2101    5.9058 C.2         1 MOL       0.1104
      7 N22       -15.2755   49.9905    5.9305 N.pl3       1 MOL      -0.2442
      8 N21       -15.1579   49.4372    7.1012 N.2         1 MOL      -0.3319
      9 C18       -14.5001   50.2902    7.9005 C.ar        1 MOL      -0.0092
     10 C17       -14.1213   50.1844    9.2447 C.ar        1 MOL      -0.0531
     11 C16       -13.4452   51.2635    9.8480 C.ar        1 MOL      -0.0414
     12 N12       -11.7119   54.3729    9.0612 N.am        1 MOL      -0.2325
     13 C8        -10.8272   55.3321    9.5148 C.ar        1 MOL       0.0706
     14 C7        -10.0798   55.2059   10.7120 C.ar        1 MOL      -0.0238
     15 C9        -10.5618   56.4295    8.6680 C.ar        1 MOL      -0.0372
     16 C10        -9.6079   57.4008    9.0302 C.ar        1 MOL      -0.0702
     17 C11        -8.8894   57.2721   10.2314 C.ar        1 MOL      -0.0591
     18 C6         -9.1180   56.1762   11.0866 C.ar        1 MOL       0.0268
     19 C2         -8.3864   56.0221   12.2828 C.2         1 MOL       0.1822
     20 N3         -7.2087   56.5589   12.6108 N.pl3       1 MOL      -0.1510
     21 N4         -6.8771   56.1215   13.7370 N.2         1 MOL      -0.0636
     22 N5         -7.7556   55.3690   14.1558 N.2         1 MOL      -0.1383
     23 N1         -8.7056   55.2537   13.3310 N.2         1 MOL      -0.2073
     24 H1        -13.3172   53.3422    7.1850 H           1 MOL       0.0680
     25 H2        -14.6800   51.8422    5.1051 H           1 MOL       0.1370
     26 H3        -15.7207   49.5759    5.1714 H           1 MOL       0.2935
     27 H4        -14.3453   49.3348    9.7778 H           1 MOL       0.0630
     28 H5        -13.1622   51.1567   10.8277 H           1 MOL       0.0669
     29 H6        -11.7852   54.3043    8.0889 H           1 MOL       0.2252
     30 H7        -10.1988   54.3734   11.2885 H           1 MOL       0.0543
     31 H8        -11.0685   56.5392    7.7851 H           1 MOL       0.0536
     32 H9         -9.4329   58.1988    8.4137 H           1 MOL       0.0588
     33 H10        -8.1987   57.9876   10.4681 H           1 MOL       0.0535
     34 H11        -6.6722   57.1507   12.0612 H           1 MOL       0.2708
@<TRIPOS>BOND
     1     1     2   2
     2     2     3   1
     3     2    12  am
     4     3     4  ar
     5     3    11  ar
     6     4     5  ar
     7     5     6   2
     8     5     9  ar
     9     6     7   1
    10     7     8   1
    11     8     9   2
    12     9    10  ar
    13    10    11  ar
    14    12    13   1
    15    13    14  ar
    16    13    15  ar
    17    14    18  ar
    18    15    16  ar
    19    16    17  ar
    20    17    18  ar
    21    18    19   1
    22    19    20   1
    23    19    23   2
    24    20    21   1
    25    21    22   2
    26    22    23   1
    27     4    24   1
    28     6    25   1
    29     7    26   1
    30    10    27   1
    31    11    28   1
    32    12    29   1
    33    14    30   1
    34    15    31   1
    35    16    32   1
    36    17    33   1
    37    20    34   1
@<TRIPOS>SUBSTRUCTURE
     1  MOL      2

