@<TRIPOS>MOLECULE
4de1_ligand_009
    34    37
SMALL
GAST_HUCK
****
This file was generated by PARSER (from files_GN.cpp)

@<TRIPOS>ATOM
      1 O14        -9.5358   54.0985   10.6596 O.2         1 MOL      -0.3730
      2 C13        -9.2335   54.8392   11.5870 C.2         1 MOL       0.2323
      3 C15        -8.0683   54.5540   12.2601 C.ar        1 MOL       0.0570
      4 C20        -8.0949   53.8022   13.4591 C.ar        1 MOL      -0.0265
      5 C19        -6.8701   53.4310   14.0365 C.ar        1 MOL       0.0384
      6 C23        -6.5438   52.6787   15.1515 C.2         1 MOL       0.1104
      7 N22        -5.2030   52.6149   15.1887 N.pl3       1 MOL      -0.2442
      8 N21        -4.6657   53.2853   14.2105 N.2         1 MOL      -0.3319
      9 C18        -5.6556   53.8066   13.4744 C.ar        1 MOL      -0.0092
     10 C17        -5.6092   54.5968   12.3097 C.ar        1 MOL      -0.0531
     11 C16        -6.8307   54.9631   11.7040 C.ar        1 MOL      -0.0414
     12 N12        -9.9769   55.8529   12.0029 N.am        1 MOL      -0.2325
     13 C8        -11.1064   56.3842   11.4442 C.ar        1 MOL       0.0706
     14 C7        -11.4284   56.3217   10.0685 C.ar        1 MOL      -0.0238
     15 C9        -11.9443   57.1291   12.2985 C.ar        1 MOL      -0.0372
     16 C10       -13.0813   57.7912   11.7930 C.ar        1 MOL      -0.0702
     17 C11       -13.3838   57.7322   10.4172 C.ar        1 MOL      -0.0591
     18 C6        -12.5593   56.9874    9.5439 C.ar        1 MOL       0.0268
     19 C2        -12.8426   56.9021    8.1619 C.2         1 MOL       0.1822
     20 N3        -13.0576   57.8881    7.2887 N.pl3       1 MOL      -0.1510
     21 N4        -13.2218   57.3719    6.1568 N.2         1 MOL      -0.0636
     22 N5        -13.1468   56.1446    6.2435 N.2         1 MOL      -0.1383
     23 N1        -12.8981   55.7847    7.4262 N.2         1 MOL      -0.2073
     24 H1         -8.9742   53.4924   13.8752 H           1 MOL       0.0680
     25 H2         -7.1942   52.2329   15.8029 H           1 MOL       0.1370
     26 H3         -4.7059   52.1146   15.8531 H           1 MOL       0.2935
     27 H4         -4.7156   54.8907   11.9126 H           1 MOL       0.0630
     28 H5         -6.8104   55.5287   10.8450 H           1 MOL       0.0669
     29 H6         -9.6666   56.2798   12.8193 H           1 MOL       0.2252
     30 H7        -10.7988   55.8353    9.4251 H           1 MOL       0.0543
     31 H8        -11.7373   57.1883   13.2945 H           1 MOL       0.0536
     32 H9        -13.6847   58.3197   12.4353 H           1 MOL       0.0588
     33 H10       -14.2156   58.2206   10.0772 H           1 MOL       0.0535
     34 H11       -12.9738   58.8354    7.4667 H           1 MOL       0.2708
@<TRIPOS>BOND
     1     1     2   2
     2     2     3   1
     3     2    12  am
     4     3     4  ar
     5     3    11  ar
     6     4     5  ar
     7     5     6   2
     8     5     9  ar
     9     6     7   1
    10     7     8   1
    11     8     9   2
    12     9    10  ar
    13    10    11  ar
    14    12    13   1
    15    13    14  ar
    16    13    15  ar
    17    14    18  ar
    18    15    16  ar
    19    16    17  ar
    20    17    18  ar
    21    18    19   1
    22    19    20   1
    23    19    23   2
    24    20    21   1
    25    21    22   2
    26    22    23   1
    27     4    24   1
    28     6    25   1
    29     7    26   1
    30    10    27   1
    31    11    28   1
    32    12    29   1
    33    14    30   1
    34    15    31   1
    35    16    32   1
    36    17    33   1
    37    20    34   1
@<TRIPOS>SUBSTRUCTURE
     1  MOL      2

