@<TRIPOS>MOLECULE
4de1_ligand_027
    34    37
SMALL
GAST_HUCK
****
This file was generated by PARSER (from files_GN.cpp)

@<TRIPOS>ATOM
      1 O14        -7.4199   53.2446    7.3606 O.2         1 MOL      -0.3730
      2 C13        -6.4774   53.6973    6.7300 C.2         1 MOL       0.2323
      3 C15        -6.7069   54.8279    5.9342 C.ar        1 MOL       0.0570
      4 C20        -8.0145   55.1189    5.4471 C.ar        1 MOL      -0.0265
      5 C19        -8.2385   56.2944    4.7123 C.ar        1 MOL       0.0384
      6 C23        -9.3695   56.8642    4.1539 C.2         1 MOL       0.1104
      7 N22        -8.9845   58.0195    3.5881 N.pl3       1 MOL      -0.2442
      8 N21        -7.7080   58.2185    3.7489 N.2         1 MOL      -0.3319
      9 C18        -7.2024   57.1739    4.4240 C.ar        1 MOL      -0.0092
     10 C17        -5.8982   56.9079    4.8627 C.ar        1 MOL      -0.0531
     11 C16        -5.6627   55.7389    5.6151 C.ar        1 MOL      -0.0414
     12 N12        -5.2543   53.1824    6.8650 N.am        1 MOL      -0.2325
     13 C8         -4.7879   52.2008    7.7056 C.ar        1 MOL       0.0706
     14 C7         -3.3994   52.2203    7.9907 C.ar        1 MOL      -0.0238
     15 C9         -5.5731   51.1800    8.3068 C.ar        1 MOL      -0.0372
     16 C10        -5.0094   50.2832    9.2264 C.ar        1 MOL      -0.0702
     17 C11        -3.6500   50.3727    9.5614 C.ar        1 MOL      -0.0591
     18 C6         -2.8197   51.3250    8.9230 C.ar        1 MOL       0.0268
     19 C2         -1.4426   51.3815    9.2299 C.2         1 MOL       0.1822
     20 N3         -0.4121   51.6546    8.4187 N.pl3       1 MOL      -0.1510
     21 N4          0.6490   51.5799    9.0883 N.2         1 MOL      -0.0636
     22 N5          0.3740   51.3053   10.2631 N.2         1 MOL      -0.1383
     23 N1         -0.8740   51.1501   10.4221 N.2         1 MOL      -0.2073
     24 H1         -8.8090   54.5073    5.6406 H           1 MOL       0.0680
     25 H2        -10.3238   56.4936    4.1816 H           1 MOL       0.1370
     26 H3         -9.5806   58.6405    3.1445 H           1 MOL       0.2935
     27 H4         -5.1375   57.5585    4.6693 H           1 MOL       0.0630
     28 H5         -4.7200   55.5970    5.9794 H           1 MOL       0.0669
     29 H6         -4.5639   53.6346    6.3486 H           1 MOL       0.2252
     30 H7         -2.8044   52.9380    7.5535 H           1 MOL       0.0543
     31 H8         -6.5657   51.0759    8.0944 H           1 MOL       0.0536
     32 H9         -5.5968   49.5681    9.6685 H           1 MOL       0.0588
     33 H10        -3.2650   49.7063   10.2392 H           1 MOL       0.0535
     34 H11        -0.4668   51.8574    7.4717 H           1 MOL       0.2708
@<TRIPOS>BOND
     1     1     2   2
     2     2     3   1
     3     2    12  am
     4     3     4  ar
     5     3    11  ar
     6     4     5  ar
     7     5     6   2
     8     5     9  ar
     9     6     7   1
    10     7     8   1
    11     8     9   2
    12     9    10  ar
    13    10    11  ar
    14    12    13   1
    15    13    14  ar
    16    13    15  ar
    17    14    18  ar
    18    15    16  ar
    19    16    17  ar
    20    17    18  ar
    21    18    19   1
    22    19    20   1
    23    19    23   2
    24    20    21   1
    25    21    22   2
    26    22    23   1
    27     4    24   1
    28     6    25   1
    29     7    26   1
    30    10    27   1
    31    11    28   1
    32    12    29   1
    33    14    30   1
    34    15    31   1
    35    16    32   1
    36    17    33   1
    37    20    34   1
@<TRIPOS>SUBSTRUCTURE
     1  MOL      2

