@<TRIPOS>MOLECULE
4de1_ligand_081
    34    37
SMALL
GAST_HUCK
****
This file was generated by PARSER (from files_GN.cpp)

@<TRIPOS>ATOM
      1 O14        -5.8298   53.4313    7.7621 O.2         1 MOL      -0.3730
      2 C13        -6.8576   54.0940    7.7109 C.2         1 MOL       0.2323
      3 C15        -6.9722   55.1002    6.7313 C.ar        1 MOL       0.0570
      4 C20        -8.2398   55.5296    6.2398 C.ar        1 MOL      -0.0265
      5 C19        -8.3113   56.5650    5.2929 C.ar        1 MOL       0.0384
      6 C23        -9.3679   57.2008    4.6612 C.2         1 MOL       0.1104
      7 N22        -8.8338   58.1561    3.8811 N.pl3       1 MOL      -0.2442
      8 N21        -7.5384   58.1750    3.9793 N.2         1 MOL      -0.3319
      9 C18        -7.1676   57.1899    4.8169 C.ar        1 MOL      -0.0092
     10 C17        -5.8979   56.7838    5.2533 C.ar        1 MOL      -0.0531
     11 C16        -5.8097   55.7477    6.2090 C.ar        1 MOL      -0.0414
     12 N12        -7.8501   53.8179    8.5607 N.am        1 MOL      -0.2325
     13 C8         -7.9097   52.9082    9.5859 C.ar        1 MOL       0.0706
     14 C7         -9.1235   52.2014    9.7520 C.ar        1 MOL      -0.0238
     15 C9         -6.8681   52.6809   10.5173 C.ar        1 MOL      -0.0372
     16 C10        -7.0185   51.7358   11.5460 C.ar        1 MOL      -0.0702
     17 C11        -8.2204   51.0185   11.6718 C.ar        1 MOL      -0.0591
     18 C6         -9.2956   51.2435   10.7791 C.ar        1 MOL       0.0268
     19 C2        -10.5116   50.5288   10.9145 C.2         1 MOL       0.1822
     20 N3        -10.7419   49.4152   11.6170 N.pl3       1 MOL      -0.1510
     21 N4        -11.9458   49.0934   11.4581 N.2         1 MOL      -0.0636
     22 N5        -12.5004   49.9104   10.7264 N.2         1 MOL      -0.1383
     23 N1        -11.6946   50.8116   10.3540 N.2         1 MOL      -0.2073
     24 H1         -9.1148   55.1153    6.5592 H           1 MOL       0.0680
     25 H2        -10.3623   56.9975    4.7765 H           1 MOL       0.1370
     26 H3         -9.3486   58.7687    3.3335 H           1 MOL       0.2935
     27 H4         -5.0570   57.2507    4.9048 H           1 MOL       0.0630
     28 H5         -4.8737   55.4840    6.5315 H           1 MOL       0.0669
     29 H6         -8.6766   54.2929    8.4004 H           1 MOL       0.2252
     30 H7         -9.8899   52.3781    9.0951 H           1 MOL       0.0543
     31 H8         -5.9991   53.2148   10.4757 H           1 MOL       0.0536
     32 H9         -6.2586   51.5806   12.2132 H           1 MOL       0.0588
     33 H10        -8.3067   50.3439   12.4356 H           1 MOL       0.0535
     34 H11       -10.0916   48.9269   12.1471 H           1 MOL       0.2708
@<TRIPOS>BOND
     1     1     2   2
     2     2     3   1
     3     2    12  am
     4     3     4  ar
     5     3    11  ar
     6     4     5  ar
     7     5     6   2
     8     5     9  ar
     9     6     7   1
    10     7     8   1
    11     8     9   2
    12     9    10  ar
    13    10    11  ar
    14    12    13   1
    15    13    14  ar
    16    13    15  ar
    17    14    18  ar
    18    15    16  ar
    19    16    17  ar
    20    17    18  ar
    21    18    19   1
    22    19    20   1
    23    19    23   2
    24    20    21   1
    25    21    22   2
    26    22    23   1
    27     4    24   1
    28     6    25   1
    29     7    26   1
    30    10    27   1
    31    11    28   1
    32    12    29   1
    33    14    30   1
    34    15    31   1
    35    16    32   1
    36    17    33   1
    37    20    34   1
@<TRIPOS>SUBSTRUCTURE
     1  MOL      2

