@<TRIPOS>MOLECULE
4de1_ligand_018
    34    37
SMALL
GAST_HUCK
****
This file was generated by PARSER (from files_GN.cpp)

@<TRIPOS>ATOM
      1 O14       -12.8683   55.9855    9.3673 O.2         1 MOL      -0.3730
      2 C13       -12.3487   56.7507    8.5449 C.2         1 MOL       0.2323
      3 C15       -13.1285   57.7473    7.9865 C.ar        1 MOL       0.0570
      4 C20       -13.2949   57.8423    6.5789 C.ar        1 MOL      -0.0265
      5 C19       -14.1140   58.8680    6.0511 C.ar        1 MOL       0.0384
      6 C23       -14.5171   59.2225    4.7674 C.2         1 MOL       0.1104
      7 N22       -15.3424   60.2788    4.8865 N.pl3       1 MOL      -0.2442
      8 N21       -15.4723   60.6311    6.1252 N.2         1 MOL      -0.3319
      9 C18       -14.7374   59.7895    6.8814 C.ar        1 MOL      -0.0092
     10 C17       -14.5652   59.7335    8.2680 C.ar        1 MOL      -0.0531
     11 C16       -13.7710   58.7014    8.8194 C.ar        1 MOL      -0.0414
     12 N12       -11.0869   56.6260    8.1439 N.am        1 MOL      -0.2325
     13 C8        -10.1085   55.8531    8.7037 C.ar        1 MOL       0.0706
     14 C7         -9.8075   55.8842   10.0900 C.ar        1 MOL      -0.0238
     15 C9         -9.2069   55.1846    7.8412 C.ar        1 MOL      -0.0372
     16 C10        -8.0839   54.5073    8.3462 C.ar        1 MOL      -0.0702
     17 C11        -7.7807   54.5890    9.7125 C.ar        1 MOL      -0.0591
     18 C6         -8.6049   55.3356   10.5906 C.ar        1 MOL       0.0268
     19 C2         -8.2532   55.5126   11.9369 C.2         1 MOL       0.1822
     20 N3         -7.0963   55.9979   12.4174 N.pl3       1 MOL      -0.1510
     21 N4         -7.1791   56.0198   13.6630 N.2         1 MOL      -0.0636
     22 N5         -8.2553   55.5286   14.0235 N.2         1 MOL      -0.1383
     23 N1         -8.9719   55.2221   13.0266 N.2         1 MOL      -0.2073
     24 H1        -12.8351   57.1803    5.9500 H           1 MOL       0.0680
     25 H2        -14.2628   58.7574    3.8960 H           1 MOL       0.1370
     26 H3        -15.7850   60.7299    4.1393 H           1 MOL       0.2935
     27 H4        -14.9960   60.4435    8.8691 H           1 MOL       0.0630
     28 H5        -13.6415   58.6701    9.8300 H           1 MOL       0.0669
     29 H6        -10.8106   57.2469    7.4382 H           1 MOL       0.2252
     30 H7        -10.4282   56.3898   10.7243 H           1 MOL       0.0543
     31 H8         -9.3798   55.1820    6.8281 H           1 MOL       0.0536
     32 H9         -7.4863   53.9624    7.7128 H           1 MOL       0.0588
     33 H10        -6.9373   54.1278   10.0611 H           1 MOL       0.0535
     34 H11        -6.4133   56.4264   11.8781 H           1 MOL       0.2708
@<TRIPOS>BOND
     1     1     2   2
     2     2     3   1
     3     2    12  am
     4     3     4  ar
     5     3    11  ar
     6     4     5  ar
     7     5     6   2
     8     5     9  ar
     9     6     7   1
    10     7     8   1
    11     8     9   2
    12     9    10  ar
    13    10    11  ar
    14    12    13   1
    15    13    14  ar
    16    13    15  ar
    17    14    18  ar
    18    15    16  ar
    19    16    17  ar
    20    17    18  ar
    21    18    19   1
    22    19    20   1
    23    19    23   2
    24    20    21   1
    25    21    22   2
    26    22    23   1
    27     4    24   1
    28     6    25   1
    29     7    26   1
    30    10    27   1
    31    11    28   1
    32    12    29   1
    33    14    30   1
    34    15    31   1
    35    16    32   1
    36    17    33   1
    37    20    34   1
@<TRIPOS>SUBSTRUCTURE
     1  MOL      2

