@<TRIPOS>MOLECULE
4de1_ligand_064
    34    37
SMALL
GAST_HUCK
****
This file was generated by PARSER (from files_GN.cpp)

@<TRIPOS>ATOM
      1 O14       -15.7746   59.6430   10.1397 O.2         1 MOL      -0.3730
      2 C13       -15.2201   59.9750    9.0961 C.2         1 MOL       0.2323
      3 C15       -15.9695   60.1100    7.9286 C.ar        1 MOL       0.0570
      4 C20       -17.1232   59.3050    7.7261 C.ar        1 MOL      -0.0265
      5 C19       -17.8443   59.4240    6.5294 C.ar        1 MOL       0.0384
      6 C23       -18.9618   58.7716    6.0353 C.2         1 MOL       0.1104
      7 N22       -19.2088   59.3032    4.8251 N.pl3       1 MOL      -0.2442
      8 N21       -18.3354   60.2210    4.5238 N.2         1 MOL      -0.3319
      9 C18       -17.4702   60.3330    5.5472 C.ar        1 MOL      -0.0092
     10 C17       -16.3466   61.1593    5.7233 C.ar        1 MOL      -0.0531
     11 C16       -15.5985   61.0381    6.9136 C.ar        1 MOL      -0.0414
     12 N12       -13.8980   60.0673    9.0328 N.am        1 MOL      -0.2325
     13 C8        -12.9871   59.9107   10.0355 C.ar        1 MOL       0.0706
     14 C7        -11.8726   59.0840    9.7819 C.ar        1 MOL      -0.0238
     15 C9        -13.0864   60.5502   11.2927 C.ar        1 MOL      -0.0372
     16 C10       -12.0981   60.3553   12.2741 C.ar        1 MOL      -0.0702
     17 C11       -11.0234   59.4869   12.0255 C.ar        1 MOL      -0.0591
     18 C6        -10.8928   58.8438   10.7729 C.ar        1 MOL       0.0268
     19 C2         -9.8206   57.9623   10.5237 C.2         1 MOL       0.1822
     20 N3         -9.1650   57.2061   11.4043 N.pl3       1 MOL      -0.1510
     21 N4         -8.3147   56.5221   10.7792 N.2         1 MOL      -0.0636
     22 N5         -8.3739   56.7865    9.5839 N.2         1 MOL      -0.1383
     23 N1         -9.2639   57.6504    9.3465 N.2         1 MOL      -0.2073
     24 H1        -17.4273   58.6183    8.4222 H           1 MOL       0.0680
     25 H2        -19.4885   58.0262    6.4931 H           1 MOL       0.1370
     26 H3        -19.9290   59.0206    4.2432 H           1 MOL       0.2935
     27 H4        -16.0759   61.8335    5.0040 H           1 MOL       0.0630
     28 H5        -14.7846   61.6442    7.0301 H           1 MOL       0.0669
     29 H6        -13.5137   60.1691    8.1516 H           1 MOL       0.2252
     30 H7        -11.8024   58.6129    8.8757 H           1 MOL       0.0543
     31 H8        -13.8596   61.1900   11.4862 H           1 MOL       0.0536
     32 H9        -12.1667   60.8343   13.1729 H           1 MOL       0.0588
     33 H10       -10.3225   59.3504   12.7553 H           1 MOL       0.0535
     34 H11        -9.3587   57.1430   12.3549 H           1 MOL       0.2708
@<TRIPOS>BOND
     1     1     2   2
     2     2     3   1
     3     2    12  am
     4     3     4  ar
     5     3    11  ar
     6     4     5  ar
     7     5     6   2
     8     5     9  ar
     9     6     7   1
    10     7     8   1
    11     8     9   2
    12     9    10  ar
    13    10    11  ar
    14    12    13   1
    15    13    14  ar
    16    13    15  ar
    17    14    18  ar
    18    15    16  ar
    19    16    17  ar
    20    17    18  ar
    21    18    19   1
    22    19    20   1
    23    19    23   2
    24    20    21   1
    25    21    22   2
    26    22    23   1
    27     4    24   1
    28     6    25   1
    29     7    26   1
    30    10    27   1
    31    11    28   1
    32    12    29   1
    33    14    30   1
    34    15    31   1
    35    16    32   1
    36    17    33   1
    37    20    34   1
@<TRIPOS>SUBSTRUCTURE
     1  MOL      2

