@<TRIPOS>MOLECULE
4de1_ligand_036
    34    37
SMALL
GAST_HUCK
****
This file was generated by PARSER (from files_GN.cpp)

@<TRIPOS>ATOM
      1 O14        -6.5613   54.0420    8.0625 O.2         1 MOL      -0.3730
      2 C13        -7.7714   54.1207    8.2478 C.2         1 MOL       0.2323
      3 C15        -8.5428   54.8463    7.3375 C.ar        1 MOL       0.0570
      4 C20        -7.9683   55.9288    6.6174 C.ar        1 MOL      -0.0265
      5 C19        -8.7537   56.6533    5.7120 C.ar        1 MOL       0.0384
      6 C23        -8.4935   57.7308    4.8856 C.2         1 MOL       0.1104
      7 N22        -9.6376   58.0003    4.2237 N.pl3       1 MOL      -0.2442
      8 N21       -10.5839   57.1827    4.5714 N.2         1 MOL      -0.3319
      9 C18       -10.0869   56.3368    5.4891 C.ar        1 MOL      -0.0092
     10 C17       -10.6879   55.2758    6.1819 C.ar        1 MOL      -0.0531
     11 C16        -9.9168   54.5391    7.1032 C.ar        1 MOL      -0.0414
     12 N12        -8.3340   53.5048    9.2899 N.am        1 MOL      -0.2325
     13 C8         -7.7698   52.8370   10.3483 C.ar        1 MOL       0.0706
     14 C7         -6.4458   53.0492   10.8242 C.ar        1 MOL      -0.0238
     15 C9         -8.5937   51.9292   11.0516 C.ar        1 MOL      -0.0372
     16 C10        -8.0975   51.2290   12.1626 C.ar        1 MOL      -0.0702
     17 C11        -6.7776   51.4323   12.6014 C.ar        1 MOL      -0.0591
     18 C6         -5.9336   52.3484   11.9355 C.ar        1 MOL       0.0268
     19 C2         -4.6030   52.5731   12.3848 C.2         1 MOL       0.1822
     20 N3         -3.6104   53.2012   11.7450 N.pl3       1 MOL      -0.1510
     21 N4         -2.5885   53.1926   12.4771 N.2         1 MOL      -0.0636
     22 N5         -2.8589   52.6298   13.5387 N.2         1 MOL      -0.1383
     23 N1         -4.0528   52.2162   13.5539 N.2         1 MOL      -0.2073
     24 H1         -6.9924   56.2015    6.7611 H           1 MOL       0.0680
     25 H2         -7.6103   58.2285    4.7862 H           1 MOL       0.1370
     26 H3         -9.7335   58.7195    3.5762 H           1 MOL       0.2935
     27 H4        -11.6671   55.0436    6.0143 H           1 MOL       0.0630
     28 H5        -10.3625   53.7533    7.5839 H           1 MOL       0.0669
     29 H6         -9.3055   53.5360    9.3029 H           1 MOL       0.2252
     30 H7         -5.8597   53.7562   10.3839 H           1 MOL       0.0543
     31 H8         -9.5598   51.7648   10.7441 H           1 MOL       0.0536
     32 H9         -8.6966   50.5601   12.6477 H           1 MOL       0.0588
     33 H10        -6.4371   50.9075   13.4078 H           1 MOL       0.0535
     34 H11        -3.6521   53.5740   10.8484 H           1 MOL       0.2708
@<TRIPOS>BOND
     1     1     2   2
     2     2     3   1
     3     2    12  am
     4     3     4  ar
     5     3    11  ar
     6     4     5  ar
     7     5     6   2
     8     5     9  ar
     9     6     7   1
    10     7     8   1
    11     8     9   2
    12     9    10  ar
    13    10    11  ar
    14    12    13   1
    15    13    14  ar
    16    13    15  ar
    17    14    18  ar
    18    15    16  ar
    19    16    17  ar
    20    17    18  ar
    21    18    19   1
    22    19    20   1
    23    19    23   2
    24    20    21   1
    25    21    22   2
    26    22    23   1
    27     4    24   1
    28     6    25   1
    29     7    26   1
    30    10    27   1
    31    11    28   1
    32    12    29   1
    33    14    30   1
    34    15    31   1
    35    16    32   1
    36    17    33   1
    37    20    34   1
@<TRIPOS>SUBSTRUCTURE
     1  MOL      2

