@<TRIPOS>MOLECULE
4de1_ligand_045
    34    37
SMALL
GAST_HUCK
****
This file was generated by PARSER (from files_GN.cpp)

@<TRIPOS>ATOM
      1 O14        -4.7482   50.6537    7.9698 O.2         1 MOL      -0.3730
      2 C13        -3.7483   51.3300    8.2078 C.2         1 MOL       0.2323
      3 C15        -3.4516   51.6687    9.5422 C.ar        1 MOL       0.0570
      4 C20        -2.3680   52.5322    9.8692 C.ar        1 MOL      -0.0265
      5 C19        -2.1427   52.9040   11.2036 C.ar        1 MOL       0.0384
      6 C23        -1.2105   53.7308   11.8047 C.2         1 MOL       0.1104
      7 N22        -1.5098   53.7500   13.1135 N.pl3       1 MOL      -0.2442
      8 N21        -2.5212   52.9830   13.3805 N.2         1 MOL      -0.3319
      9 C18        -2.9463   52.4360   12.2300 C.ar        1 MOL      -0.0092
     10 C17        -4.0052   51.5564   11.9630 C.ar        1 MOL      -0.0531
     11 C16        -4.2550   51.1871   10.6219 C.ar        1 MOL      -0.0414
     12 N12        -2.9662   51.7016    7.1889 N.am        1 MOL      -0.2325
     13 C8         -3.1609   51.4277    5.8590 C.ar        1 MOL       0.0706
     14 C7         -4.3447   51.8077    5.2006 C.ar        1 MOL      -0.0238
     15 C9         -2.1140   50.8285    5.1130 C.ar        1 MOL      -0.0372
     16 C10        -2.2819   50.5799    3.7335 C.ar        1 MOL      -0.0702
     17 C11        -3.4796   50.9477    3.0887 C.ar        1 MOL      -0.0591
     18 C6         -4.5014   51.5756    3.8219 C.ar        1 MOL       0.0268
     19 C2         -5.6575   52.0133    3.1623 C.2         1 MOL       0.1822
     20 N3         -6.7783   51.3366    2.9525 N.pl3       1 MOL      -0.1510
     21 N4         -7.5634   52.1060    2.3346 N.2         1 MOL      -0.0636
     22 N5         -7.0265   53.1925    2.1474 N.2         1 MOL      -0.1383
     23 N1         -5.8550   53.2203    2.6256 N.2         1 MOL      -0.2073
     24 H1         -1.7487   52.9168    9.1545 H           1 MOL       0.0680
     25 H2         -0.4495   54.2357   11.3395 H           1 MOL       0.1370
     26 H3         -1.0288   54.2753   13.7795 H           1 MOL       0.2935
     27 H4         -4.5896   51.2006   12.7235 H           1 MOL       0.0630
     28 H5         -5.0384   50.5513   10.4525 H           1 MOL       0.0669
     29 H6         -2.1428   52.1441    7.4056 H           1 MOL       0.2252
     30 H7         -5.0799   52.2932    5.7254 H           1 MOL       0.0543
     31 H8         -1.2399   50.5657    5.5589 H           1 MOL       0.0536
     32 H9         -1.5337   50.1366    3.2006 H           1 MOL       0.0588
     33 H10        -3.5780   50.7733    2.0862 H           1 MOL       0.0535
     34 H11        -6.9503   50.4210    3.2120 H           1 MOL       0.2708
@<TRIPOS>BOND
     1     1     2   2
     2     2     3   1
     3     2    12  am
     4     3     4  ar
     5     3    11  ar
     6     4     5  ar
     7     5     6   2
     8     5     9  ar
     9     6     7   1
    10     7     8   1
    11     8     9   2
    12     9    10  ar
    13    10    11  ar
    14    12    13   1
    15    13    14  ar
    16    13    15  ar
    17    14    18  ar
    18    15    16  ar
    19    16    17  ar
    20    17    18  ar
    21    18    19   1
    22    19    20   1
    23    19    23   2
    24    20    21   1
    25    21    22   2
    26    22    23   1
    27     4    24   1
    28     6    25   1
    29     7    26   1
    30    10    27   1
    31    11    28   1
    32    12    29   1
    33    14    30   1
    34    15    31   1
    35    16    32   1
    36    17    33   1
    37    20    34   1
@<TRIPOS>SUBSTRUCTURE
     1  MOL      2

