@<TRIPOS>MOLECULE
4de1_ligand_049
    34    37
SMALL
GAST_HUCK
****
This file was generated by PARSER (from files_GN.cpp)

@<TRIPOS>ATOM
      1 O14        -6.8039   50.8551    8.3453 O.2         1 MOL      -0.3730
      2 C13        -5.9342   51.5387    8.9016 C.2         1 MOL       0.2323
      3 C15        -5.5969   51.2675   10.2208 C.ar        1 MOL       0.0570
      4 C20        -5.5787   52.2813   11.2182 C.ar        1 MOL      -0.0265
      5 C19        -5.2439   51.9444   12.5412 C.ar        1 MOL       0.0384
      6 C23        -5.1624   52.6762   13.7270 C.2         1 MOL       0.1104
      7 N22        -4.7949   51.8072   14.6904 N.pl3       1 MOL      -0.2442
      8 N21        -4.6380   50.6111   14.2150 N.2         1 MOL      -0.3319
      9 C18        -4.9004   50.6390   12.8985 C.ar        1 MOL      -0.0092
     10 C17        -4.9086   49.6169   11.9362 C.ar        1 MOL      -0.0531
     11 C16        -5.2706   49.9327   10.6125 C.ar        1 MOL      -0.0414
     12 N12        -5.3799   52.5715    8.2501 N.am        1 MOL      -0.2325
     13 C8         -5.6284   52.9254    6.9377 C.ar        1 MOL       0.0706
     14 C7         -6.1750   54.1918    6.6399 C.ar        1 MOL      -0.0238
     15 C9         -5.2165   52.0692    5.8907 C.ar        1 MOL      -0.0372
     16 C10        -5.3403   52.4879    4.5653 C.ar        1 MOL      -0.0702
     17 C11        -5.8954   53.7375    4.2511 C.ar        1 MOL      -0.0591
     18 C6         -6.3088   54.6100    5.2928 C.ar        1 MOL       0.0268
     19 C2         -6.8891   55.8448    4.9767 C.2         1 MOL       0.1822
     20 N3         -6.2860   56.9472    4.5026 N.pl3       1 MOL      -0.1510
     21 N4         -7.1587   57.8334    4.3165 N.2         1 MOL      -0.0636
     22 N5         -8.2776   57.3599    4.5792 N.2         1 MOL      -0.1383
     23 N1         -8.1957   56.1685    5.0003 N.2         1 MOL      -0.2073
     24 H1         -5.8486   53.2401   11.0054 H           1 MOL       0.0680
     25 H2         -5.3448   53.6648   13.8455 H           1 MOL       0.1370
     26 H3         -4.6955   52.0264   15.6324 H           1 MOL       0.2935
     27 H4         -4.6565   48.6593   12.2002 H           1 MOL       0.0630
     28 H5         -5.2781   49.1757    9.9277 H           1 MOL       0.0669
     29 H6         -4.7314   53.1179    8.7473 H           1 MOL       0.2252
     30 H7         -6.4830   54.8070    7.3977 H           1 MOL       0.0543
     31 H8         -4.8116   51.1546    6.1007 H           1 MOL       0.0536
     32 H9         -5.0424   51.8623    3.8114 H           1 MOL       0.0588
     33 H10        -5.9901   54.0150    3.2764 H           1 MOL       0.0535
     34 H11        -5.3235   57.0644    4.3680 H           1 MOL       0.2708
@<TRIPOS>BOND
     1     1     2   2
     2     2     3   1
     3     2    12  am
     4     3     4  ar
     5     3    11  ar
     6     4     5  ar
     7     5     6   2
     8     5     9  ar
     9     6     7   1
    10     7     8   1
    11     8     9   2
    12     9    10  ar
    13    10    11  ar
    14    12    13   1
    15    13    14  ar
    16    13    15  ar
    17    14    18  ar
    18    15    16  ar
    19    16    17  ar
    20    17    18  ar
    21    18    19   1
    22    19    20   1
    23    19    23   2
    24    20    21   1
    25    21    22   2
    26    22    23   1
    27     4    24   1
    28     6    25   1
    29     7    26   1
    30    10    27   1
    31    11    28   1
    32    12    29   1
    33    14    30   1
    34    15    31   1
    35    16    32   1
    36    17    33   1
    37    20    34   1
@<TRIPOS>SUBSTRUCTURE
     1  MOL      2

