@<TRIPOS>MOLECULE
4de1_ligand_066
    34    37
SMALL
GAST_HUCK
****
This file was generated by PARSER (from files_GN.cpp)

@<TRIPOS>ATOM
      1 O14       -11.1184   54.8161    9.0889 O.2         1 MOL      -0.3730
      2 C13       -10.9288   55.7620    8.3320 C.2         1 MOL       0.2323
      3 C15        -9.7407   55.7860    7.5932 C.ar        1 MOL       0.0570
      4 C20        -9.7397   56.1659    6.2201 C.ar        1 MOL      -0.0265
      5 C19        -8.5334   56.1684    5.5052 C.ar        1 MOL       0.0384
      6 C23        -8.2126   56.4811    4.1928 C.2         1 MOL       0.1104
      7 N22        -6.8905   56.2939    4.0670 N.pl3       1 MOL      -0.2442
      8 N21        -6.3561   55.8949    5.1853 N.2         1 MOL      -0.3319
      9 C18        -7.3345   55.8030    6.1019 C.ar        1 MOL      -0.0092
     10 C17        -7.2949   55.4274    7.4538 C.ar        1 MOL      -0.0531
     11 C16        -8.5000   55.4102    8.1867 C.ar        1 MOL      -0.0414
     12 N12       -11.8421   56.7114    8.1568 N.am        1 MOL      -0.2325
     13 C8        -13.0982   56.8981    8.6869 C.ar        1 MOL       0.0706
     14 C7        -13.7554   58.1039    8.3360 C.ar        1 MOL      -0.0238
     15 C9        -13.7719   56.0045    9.5569 C.ar        1 MOL      -0.0372
     16 C10       -15.0674   56.2924   10.0215 C.ar        1 MOL      -0.0702
     17 C11       -15.7097   57.4802    9.6354 C.ar        1 MOL      -0.0591
     18 C6        -15.0606   58.4105    8.7922 C.ar        1 MOL       0.0268
     19 C2        -15.7148   59.6115    8.4137 C.2         1 MOL       0.1822
     20 N3        -15.1985   60.6970    7.8280 N.pl3       1 MOL      -0.1510
     21 N4        -16.1186   61.5366    7.6713 N.2         1 MOL      -0.0636
     22 N5        -17.1786   61.0749    8.0907 N.2         1 MOL      -0.1383
     23 N1        -17.0121   59.9141    8.5602 N.2         1 MOL      -0.2073
     24 H1        -10.6025   56.4126    5.7295 H           1 MOL       0.0680
     25 H2         -8.8546   56.7905    3.4616 H           1 MOL       0.1370
     26 H3         -6.3968   56.4396    3.2462 H           1 MOL       0.2935
     27 H4         -6.4112   55.1677    7.8918 H           1 MOL       0.0630
     28 H5         -8.4604   55.1382    9.1726 H           1 MOL       0.0669
     29 H6        -11.5740   57.3913    7.5205 H           1 MOL       0.2252
     30 H7        -13.2755   58.7654    7.7178 H           1 MOL       0.0543
     31 H8        -13.3380   55.1375    9.8780 H           1 MOL       0.0536
     32 H9        -15.5442   55.6338   10.6421 H           1 MOL       0.0588
     33 H10       -16.6571   57.6616    9.9802 H           1 MOL       0.0535
     34 H11       -14.2684   60.8242    7.5791 H           1 MOL       0.2708
@<TRIPOS>BOND
     1     1     2   2
     2     2     3   1
     3     2    12  am
     4     3     4  ar
     5     3    11  ar
     6     4     5  ar
     7     5     6   2
     8     5     9  ar
     9     6     7   1
    10     7     8   1
    11     8     9   2
    12     9    10  ar
    13    10    11  ar
    14    12    13   1
    15    13    14  ar
    16    13    15  ar
    17    14    18  ar
    18    15    16  ar
    19    16    17  ar
    20    17    18  ar
    21    18    19   1
    22    19    20   1
    23    19    23   2
    24    20    21   1
    25    21    22   2
    26    22    23   1
    27     4    24   1
    28     6    25   1
    29     7    26   1
    30    10    27   1
    31    11    28   1
    32    12    29   1
    33    14    30   1
    34    15    31   1
    35    16    32   1
    36    17    33   1
    37    20    34   1
@<TRIPOS>SUBSTRUCTURE
     1  MOL      2

