@<TRIPOS>MOLECULE
4de1_ligand_016
    34    37
SMALL
GAST_HUCK
****
This file was generated by PARSER (from files_GN.cpp)

@<TRIPOS>ATOM
      1 O14        -7.8395   55.9272   10.1809 O.2         1 MOL      -0.3730
      2 C13        -8.6885   56.6433    9.6610 C.2         1 MOL       0.2323
      3 C15        -9.6301   57.2857   10.4766 C.ar        1 MOL       0.0570
      4 C20       -10.2081   58.5272   10.0832 C.ar        1 MOL      -0.0265
      5 C19       -11.1389   59.1609   10.9279 C.ar        1 MOL       0.0384
      6 C23       -11.8564   60.3479   10.8385 C.2         1 MOL       0.1104
      7 N22       -12.6004   60.4318   11.9474 N.pl3       1 MOL      -0.2442
      8 N21       -12.4130   59.4087   12.7277 N.2         1 MOL      -0.3319
      9 C18       -11.5120   58.6016   12.1343 C.ar        1 MOL      -0.0092
     10 C17       -10.9714   57.3781   12.5644 C.ar        1 MOL      -0.0531
     11 C16       -10.0284   56.7354   11.7323 C.ar        1 MOL      -0.0414
     12 N12        -8.7555   56.7399    8.3368 N.am        1 MOL      -0.2325
     13 C8         -7.9432   56.1801    7.3854 C.ar        1 MOL       0.0706
     14 C7         -8.5408   55.8280    6.1507 C.ar        1 MOL      -0.0238
     15 C9         -6.5505   55.9903    7.5337 C.ar        1 MOL      -0.0372
     16 C10        -5.7758   55.4881    6.4764 C.ar        1 MOL      -0.0702
     17 C11        -6.3830   55.1577    5.2483 C.ar        1 MOL      -0.0591
     18 C6         -7.7745   55.3125    5.0795 C.ar        1 MOL       0.0268
     19 C2         -8.3898   54.9460    3.8725 C.2         1 MOL       0.1822
     20 N3         -8.1735   55.4472    2.6482 N.pl3       1 MOL      -0.1510
     21 N4         -8.9333   54.8689    1.8463 N.2         1 MOL      -0.0636
     22 N5         -9.6082   54.0172    2.4535 N.2         1 MOL      -0.1383
     23 N1         -9.3462   54.0281    3.6829 N.2         1 MOL      -0.2073
     24 H1         -9.9495   58.9825    9.2013 H           1 MOL       0.0680
     25 H2        -11.8256   61.0267   10.0729 H           1 MOL       0.1370
     26 H3        -13.2127   61.1604   12.1494 H           1 MOL       0.2935
     27 H4        -11.2573   56.9663   13.4490 H           1 MOL       0.0630
     28 H5         -9.6501   55.8415   12.0487 H           1 MOL       0.0669
     29 H6         -9.5394   57.1981    7.9940 H           1 MOL       0.2252
     30 H7         -9.5477   55.9675    6.0286 H           1 MOL       0.0543
     31 H8         -6.0933   56.2528    8.4123 H           1 MOL       0.0536
     32 H9         -4.7663   55.3630    6.5929 H           1 MOL       0.0588
     33 H10        -5.8041   54.7594    4.5002 H           1 MOL       0.0535
     34 H11        -7.5724   56.1772    2.4363 H           1 MOL       0.2708
@<TRIPOS>BOND
     1     1     2   2
     2     2     3   1
     3     2    12  am
     4     3     4  ar
     5     3    11  ar
     6     4     5  ar
     7     5     6   2
     8     5     9  ar
     9     6     7   1
    10     7     8   1
    11     8     9   2
    12     9    10  ar
    13    10    11  ar
    14    12    13   1
    15    13    14  ar
    16    13    15  ar
    17    14    18  ar
    18    15    16  ar
    19    16    17  ar
    20    17    18  ar
    21    18    19   1
    22    19    20   1
    23    19    23   2
    24    20    21   1
    25    21    22   2
    26    22    23   1
    27     4    24   1
    28     6    25   1
    29     7    26   1
    30    10    27   1
    31    11    28   1
    32    12    29   1
    33    14    30   1
    34    15    31   1
    35    16    32   1
    36    17    33   1
    37    20    34   1
@<TRIPOS>SUBSTRUCTURE
     1  MOL      2

