@<TRIPOS>MOLECULE
4de1_ligand_068
    34    37
SMALL
GAST_HUCK
****
This file was generated by PARSER (from files_GN.cpp)

@<TRIPOS>ATOM
      1 O14       -15.5851   58.3049    4.5654 O.2         1 MOL      -0.3730
      2 C13       -14.4520   58.4219    5.0228 C.2         1 MOL       0.2323
      3 C15       -13.3741   57.8660    4.3191 C.ar        1 MOL       0.0570
      4 C20       -12.0790   58.4499    4.3762 C.ar        1 MOL      -0.0265
      5 C19       -11.0127   57.8595    3.6851 C.ar        1 MOL       0.0384
      6 C23        -9.6658   58.1637    3.6000 C.2         1 MOL       0.1104
      7 N22        -9.1237   57.2697    2.7568 N.pl3       1 MOL      -0.2442
      8 N21       -10.0142   56.4214    2.3305 N.2         1 MOL      -0.3319
      9 C18       -11.1978   56.7420    2.8828 C.ar        1 MOL      -0.0092
     10 C17       -12.4655   56.1503    2.7745 C.ar        1 MOL      -0.0531
     11 C16       -13.5381   56.7044    3.5060 C.ar        1 MOL      -0.0414
     12 N12       -14.2609   59.1342    6.1344 N.am        1 MOL      -0.2325
     13 C8        -15.1794   59.8311    6.8603 C.ar        1 MOL       0.0706
     14 C7        -16.2988   59.2341    7.4856 C.ar        1 MOL      -0.0238
     15 C9        -14.9669   61.2179    7.0127 C.ar        1 MOL      -0.0372
     16 C10       -15.9133   62.0115    7.6809 C.ar        1 MOL      -0.0702
     17 C11       -17.0648   61.4202    8.2291 C.ar        1 MOL      -0.0591
     18 C6        -17.2542   60.0212    8.1697 C.ar        1 MOL       0.0268
     19 C2        -18.3689   59.4287    8.8024 C.2         1 MOL       0.1822
     20 N3        -19.6225   59.8851    8.8384 N.pl3       1 MOL      -0.1510
     21 N4        -20.3073   59.0906    9.5306 N.2         1 MOL      -0.0636
     22 N5        -19.5961   58.1771    9.9363 N.2         1 MOL      -0.1383
     23 N1        -18.4045   58.3062    9.5282 N.2         1 MOL      -0.2073
     24 H1        -11.9009   59.3141    4.8821 H           1 MOL       0.0680
     25 H2         -9.1743   58.9199    4.0833 H           1 MOL       0.1370
     26 H3         -8.1918   57.2750    2.4871 H           1 MOL       0.2935
     27 H4        -12.6061   55.3206    2.1944 H           1 MOL       0.0630
     28 H5        -14.4501   56.2443    3.4344 H           1 MOL       0.0669
     29 H6        -13.3440   59.2726    6.4168 H           1 MOL       0.2252
     30 H7        -16.4178   58.2187    7.4331 H           1 MOL       0.0543
     31 H8        -14.1431   61.6665    6.6041 H           1 MOL       0.0536
     32 H9        -15.7696   63.0212    7.7640 H           1 MOL       0.0588
     33 H10       -17.7410   62.0186    8.7103 H           1 MOL       0.0535
     34 H11       -19.9540   60.6833    8.3951 H           1 MOL       0.2708
@<TRIPOS>BOND
     1     1     2   2
     2     2     3   1
     3     2    12  am
     4     3     4  ar
     5     3    11  ar
     6     4     5  ar
     7     5     6   2
     8     5     9  ar
     9     6     7   1
    10     7     8   1
    11     8     9   2
    12     9    10  ar
    13    10    11  ar
    14    12    13   1
    15    13    14  ar
    16    13    15  ar
    17    14    18  ar
    18    15    16  ar
    19    16    17  ar
    20    17    18  ar
    21    18    19   1
    22    19    20   1
    23    19    23   2
    24    20    21   1
    25    21    22   2
    26    22    23   1
    27     4    24   1
    28     6    25   1
    29     7    26   1
    30    10    27   1
    31    11    28   1
    32    12    29   1
    33    14    30   1
    34    15    31   1
    35    16    32   1
    36    17    33   1
    37    20    34   1
@<TRIPOS>SUBSTRUCTURE
     1  MOL      2

