@<TRIPOS>MOLECULE
4de1_ligand_048
    34    37
SMALL
GAST_HUCK
****
This file was generated by PARSER (from files_GN.cpp)

@<TRIPOS>ATOM
      1 O14        -9.4700   57.8211    8.5948 O.2         1 MOL      -0.3730
      2 C13        -9.1760   56.6778    8.9436 C.2         1 MOL       0.2323
      3 C15        -8.8004   56.4853   10.2424 C.ar        1 MOL       0.0570
      4 C20        -7.5038   55.9918   10.5770 C.ar        1 MOL      -0.0265
      5 C19        -7.2036   55.7441   11.9205 C.ar        1 MOL       0.0384
      6 C23        -6.0767   55.2896   12.5780 C.2         1 MOL       0.1104
      7 N22        -6.3794   55.2342   13.8930 N.pl3       1 MOL      -0.2442
      8 N21        -7.6052   55.6212   14.1002 N.2         1 MOL      -0.3319
      9 C18        -8.1495   55.9577   12.9289 C.ar        1 MOL      -0.0092
     10 C17        -9.4276   56.4453   12.6203 C.ar        1 MOL      -0.0531
     11 C16        -9.7461   56.7194   11.2847 C.ar        1 MOL      -0.0414
     12 N12        -9.2186   55.6405    8.1123 N.am        1 MOL      -0.2325
     13 C8         -9.5747   55.6821    6.8025 C.ar        1 MOL       0.0706
     14 C7         -8.6473   55.1925    5.8623 C.ar        1 MOL      -0.0238
     15 C9        -10.8205   56.1641    6.3558 C.ar        1 MOL      -0.0372
     16 C10       -11.1294   56.1777    4.9884 C.ar        1 MOL      -0.0702
     17 C11       -10.1887   55.7122    4.0527 C.ar        1 MOL      -0.0591
     18 C6         -8.9248   55.2322    4.4753 C.ar        1 MOL       0.0268
     19 C2         -7.9364   54.8097    3.5518 C.2         1 MOL       0.1822
     20 N3         -8.0282   54.7401    2.2136 N.pl3       1 MOL      -0.1510
     21 N4         -6.9347   54.3110    1.7744 N.2         1 MOL      -0.0636
     22 N5         -6.1515   54.1226    2.7000 N.2         1 MOL      -0.1383
     23 N1         -6.6962   54.3958    3.8088 N.2         1 MOL      -0.2073
     24 H1         -6.8059   55.8334    9.8422 H           1 MOL       0.0680
     25 H2         -5.1791   55.0424   12.1556 H           1 MOL       0.1370
     26 H3         -5.7726   54.9442   14.5888 H           1 MOL       0.2935
     27 H4        -10.1188   56.5929   13.3569 H           1 MOL       0.0630
     28 H5        -10.6893   57.0517   11.0503 H           1 MOL       0.0669
     29 H6         -8.8873   54.7840    8.4633 H           1 MOL       0.2252
     30 H7         -7.7490   54.8252    6.1937 H           1 MOL       0.0543
     31 H8        -11.5181   56.4918    7.0290 H           1 MOL       0.0536
     32 H9        -12.0317   56.5229    4.6746 H           1 MOL       0.0588
     33 H10       -10.4228   55.7565    3.0607 H           1 MOL       0.0535
     34 H11        -8.8063   54.9661    1.6874 H           1 MOL       0.2708
@<TRIPOS>BOND
     1     1     2   2
     2     2     3   1
     3     2    12  am
     4     3     4  ar
     5     3    11  ar
     6     4     5  ar
     7     5     6   2
     8     5     9  ar
     9     6     7   1
    10     7     8   1
    11     8     9   2
    12     9    10  ar
    13    10    11  ar
    14    12    13   1
    15    13    14  ar
    16    13    15  ar
    17    14    18  ar
    18    15    16  ar
    19    16    17  ar
    20    17    18  ar
    21    18    19   1
    22    19    20   1
    23    19    23   2
    24    20    21   1
    25    21    22   2
    26    22    23   1
    27     4    24   1
    28     6    25   1
    29     7    26   1
    30    10    27   1
    31    11    28   1
    32    12    29   1
    33    14    30   1
    34    15    31   1
    35    16    32   1
    36    17    33   1
    37    20    34   1
@<TRIPOS>SUBSTRUCTURE
     1  MOL      2

