@<TRIPOS>MOLECULE
4de2_ligand_017
    43    45
SMALL
GAST_HUCK
****
This file was generated by PARSER (from files_GN.cpp)

@<TRIPOS>ATOM
      1 O14        -9.6981   56.2285   12.3167 O.2         1 DN3      -0.3730
      2 C13        -9.3559   57.0626   11.4823 C.2         1 DN3       0.2307
      3 C15       -10.1039   58.2476   11.3524 C.ar        1 DN3       0.0495
      4 C16        -9.8402   59.1859   10.3210 C.ar        1 DN3      -0.0484
      5 C17       -10.5933   60.3645   10.1910 C.ar        1 DN3      -0.0627
      6 C18       -11.6411   60.6331   11.0839 C.ar        1 DN3      -0.0510
      7 C19       -11.9397   59.7352   12.1303 C.ar        1 DN3       0.0068
      8 C21       -13.0829   60.0127   13.0482 C.3         1 DN3       0.0024
      9 N22       -14.4138   59.6176   12.4783 N.4         1 DN3       0.2429
     10 C23       -14.5664   58.1426   12.2915 C.3         1 DN3      -0.0419
     11 C24       -15.5508   60.1733   13.2712 C.3         1 DN3      -0.0419
     12 C20       -11.1589   58.5594   12.2546 C.ar        1 DN3      -0.0351
     13 N12        -8.3288   56.7792   10.6806 N.am        1 DN3      -0.2334
     14 C10        -7.5193   55.6840   10.7428 C.ar        1 DN3       0.0663
     15 C11        -6.7882   55.3717   11.9106 C.ar        1 DN3      -0.0321
     16 C6         -5.9347   54.2479   11.9345 C.ar        1 DN3      -0.0043
     17 C7         -5.8134   53.4319   10.7906 C.ar        1 DN3      -0.0672
     18 C8         -6.5260   53.7523    9.6211 C.ar        1 DN3      -0.0745
     19 C9         -7.3641   54.8820    9.5939 C.ar        1 DN3      -0.0410
     20 C2         -5.2094   53.9549   13.0916 C.2         1 DN3       0.1452
     21 N1         -5.5833   53.1334   14.0735 N.2         1 DN3      -0.1437
     22 N5         -4.6512   53.1972   14.9132 N.pl3       1 DN3      -0.1036
     23 N4         -3.7533   53.9628   14.5564 N.2         1 DN3      -0.0518
     24 N3         -4.0311   54.4744   13.4414 N.2         1 DN3      -0.1756
     25 H1         -9.1024   59.0227    9.6345 H           1 DN3       0.0611
     26 H2        -10.3838   61.0244    9.4385 H           1 DN3       0.0611
     27 H3        -12.1855   61.4902   10.9642 H           1 DN3       0.0594
     28 H4        -13.0774   61.0860   13.2656 H           1 DN3       0.0980
     29 H5        -12.9364   59.5090   14.0072 H           1 DN3       0.0980
     30 H6        -14.4772   60.0405   11.5491 H           1 DN3       0.2042
     31 H7        -15.5383   57.9070   11.8536 H           1 DN3       0.0778
     32 H8        -14.4748   57.6132   13.2437 H           1 DN3       0.0778
     33 H9        -13.8094   57.7602   11.6062 H           1 DN3       0.0778
     34 H10       -15.4880   61.2622   13.3201 H           1 DN3       0.0778
     35 H11       -15.5523   59.7773   14.2904 H           1 DN3       0.0778
     36 H12       -16.5049   59.9262   12.7998 H           1 DN3       0.0778
     37 H13       -11.3881   57.9084   13.0106 H           1 DN3       0.0609
     38 H14        -8.1533   57.3837    9.9438 H           1 DN3       0.2251
     39 H15        -6.8694   55.9747   12.7360 H           1 DN3       0.0504
     40 H16        -5.1997   52.6118   10.7950 H           1 DN3       0.0498
     41 H17        -6.4292   53.1674    8.7882 H           1 DN3       0.0579
     42 H18        -7.8822   55.1006    8.7393 H           1 DN3       0.0505
     43 H19        -4.6415   52.7160   15.7153 H           1 DN3       0.2946
@<TRIPOS>BOND
     1     1     2   2
     2     2     3   1
     3     2    13  am
     4     3     4  ar
     5     3    12  ar
     6     4     5  ar
     7     5     6  ar
     8     6     7  ar
     9     7     8   1
    10     7    12  ar
    11     8     9   1
    12     9    10   1
    13     9    11   1
    14    13    14   1
    15    14    15  ar
    16    14    19  ar
    17    15    16  ar
    18    16    17  ar
    19    16    20   1
    20    17    18  ar
    21    18    19  ar
    22    20    21   2
    23    20    24   1
    24    21    22   1
    25    22    23   1
    26    23    24   2
    27     4    25   1
    28     5    26   1
    29     6    27   1
    30     8    28   1
    31     8    29   1
    32     9    30   1
    33    10    31   1
    34    10    32   1
    35    10    33   1
    36    11    34   1
    37    11    35   1
    38    11    36   1
    39    12    37   1
    40    13    38   1
    41    15    39   1
    42    17    40   1
    43    18    41   1
    44    19    42   1
    45    22    43   1
@<TRIPOS>SUBSTRUCTURE
     1  DN3      2

