@<TRIPOS>MOLECULE
4de2_ligand_020
    43    45
SMALL
GAST_HUCK
****
This file was generated by PARSER (from files_GN.cpp)

@<TRIPOS>ATOM
      1 O14        -1.7711   51.7403   13.4785 O.2         1 DN3      -0.3730
      2 C13        -2.4286   50.8631   12.9314 C.2         1 DN3       0.2307
      3 C15        -1.7596   49.7486   12.4652 C.ar        1 DN3       0.0495
      4 C16        -0.6524   49.8780   11.5989 C.ar        1 DN3      -0.0484
      5 C17         0.0526   48.7383   11.1784 C.ar        1 DN3      -0.0627
      6 C18        -0.3054   47.4628   11.6516 C.ar        1 DN3      -0.0510
      7 C19        -1.4037   47.2996   12.5312 C.ar        1 DN3       0.0068
      8 C21        -1.7809   45.9527   13.0400 C.3         1 DN3       0.0024
      9 N22        -1.1875   45.5947   14.3770 N.4         1 DN3       0.2429
     10 C23        -1.7022   46.4062   15.5169 C.3         1 DN3      -0.0419
     11 C24        -1.3164   44.1371   14.6633 C.3         1 DN3      -0.0419
     12 C20        -2.1434   48.4552   12.8951 C.ar        1 DN3      -0.0351
     13 N12        -3.7330   50.9746   12.7414 N.am        1 DN3      -0.2334
     14 C10        -4.5007   51.9878   13.2302 C.ar        1 DN3       0.0663
     15 C11        -5.0512   52.9456   12.3551 C.ar        1 DN3      -0.0321
     16 C6         -5.8481   54.0148   12.8449 C.ar        1 DN3      -0.0043
     17 C7         -6.1116   54.0735   14.2338 C.ar        1 DN3      -0.0672
     18 C8         -5.5908   53.1050   15.1084 C.ar        1 DN3      -0.0745
     19 C9         -4.7882   52.0635   14.6094 C.ar        1 DN3      -0.0410
     20 C2         -6.3719   55.0014   11.9752 C.2         1 DN3       0.1452
     21 N1         -6.3217   55.0202   10.6385 N.2         1 DN3      -0.1437
     22 N5         -6.9029   56.0764   10.2855 N.pl3       1 DN3      -0.1036
     23 N4         -7.3195   56.7164   11.2484 N.2         1 DN3      -0.0518
     24 N3         -7.0344   56.1197   12.3158 N.2         1 DN3      -0.1756
     25 H1         -0.3678   50.7983   11.2661 H           1 DN3       0.0611
     26 H2          0.8404   48.8347   10.5334 H           1 DN3       0.0611
     27 H3          0.2419   46.6494   11.3504 H           1 DN3       0.0594
     28 H4         -1.4648   45.2192   12.2947 H           1 DN3       0.0980
     29 H5         -2.8717   45.8730   13.0799 H           1 DN3       0.0980
     30 H6         -0.1770   45.7691   14.3532 H           1 DN3       0.2042
     31 H7         -1.2609   46.0732   16.4568 H           1 DN3       0.0778
     32 H8         -2.7904   46.3327   15.5936 H           1 DN3       0.0778
     33 H9         -1.4265   47.4506   15.4063 H           1 DN3       0.0778
     34 H10        -0.8302   43.5412   13.8846 H           1 DN3       0.0778
     35 H11        -2.3685   43.8324   14.7235 H           1 DN3       0.0778
     36 H12        -0.8269   43.8803   15.6084 H           1 DN3       0.0778
     37 H13        -2.9468   48.3631   13.5307 H           1 DN3       0.0609
     38 H14        -4.1696   50.3011   12.1917 H           1 DN3       0.2251
     39 H15        -4.8421   52.8738   11.3544 H           1 DN3       0.0504
     40 H16        -6.6827   54.8241   14.6292 H           1 DN3       0.0498
     41 H17        -5.8049   53.1519   16.1066 H           1 DN3       0.0579
     42 H18        -4.4287   51.3521   15.2481 H           1 DN3       0.0505
     43 H19        -7.0166   56.3389    9.3957 H           1 DN3       0.2946
@<TRIPOS>BOND
     1     1     2   2
     2     2     3   1
     3     2    13  am
     4     3     4  ar
     5     3    12  ar
     6     4     5  ar
     7     5     6  ar
     8     6     7  ar
     9     7     8   1
    10     7    12  ar
    11     8     9   1
    12     9    10   1
    13     9    11   1
    14    13    14   1
    15    14    15  ar
    16    14    19  ar
    17    15    16  ar
    18    16    17  ar
    19    16    20   1
    20    17    18  ar
    21    18    19  ar
    22    20    21   2
    23    20    24   1
    24    21    22   1
    25    22    23   1
    26    23    24   2
    27     4    25   1
    28     5    26   1
    29     6    27   1
    30     8    28   1
    31     8    29   1
    32     9    30   1
    33    10    31   1
    34    10    32   1
    35    10    33   1
    36    11    34   1
    37    11    35   1
    38    11    36   1
    39    12    37   1
    40    13    38   1
    41    15    39   1
    42    17    40   1
    43    18    41   1
    44    19    42   1
    45    22    43   1
@<TRIPOS>SUBSTRUCTURE
     1  DN3      2

