@<TRIPOS>MOLECULE
4de2_ligand_005
    43    45
SMALL
GAST_HUCK
****
This file was generated by PARSER (from files_GN.cpp)

@<TRIPOS>ATOM
      1 O14        -8.8646   58.8191   10.5984 O.2         1 DN3      -0.3730
      2 C13        -9.9392   58.5753   10.0429 C.2         1 DN3       0.2307
      3 C15       -11.0745   59.3081   10.4248 C.ar        1 DN3       0.0495
      4 C16       -11.0572   60.1263   11.5894 C.ar        1 DN3      -0.0484
      5 C17       -12.1873   60.8610   11.9956 C.ar        1 DN3      -0.0627
      6 C18       -13.3789   60.7867   11.2595 C.ar        1 DN3      -0.0510
      7 C19       -13.4416   59.9976   10.0900 C.ar        1 DN3       0.0068
      8 C21       -14.7187   59.8897    9.3228 C.3         1 DN3       0.0024
      9 N22       -14.7291   60.7669    8.1021 N.4         1 DN3       0.2429
     10 C23       -15.7199   60.2955    7.0864 C.3         1 DN3      -0.0419
     11 C24       -14.9202   62.2149    8.4270 C.3         1 DN3      -0.0419
     12 C20       -12.2876   59.2812    9.6832 C.ar        1 DN3      -0.0351
     13 N12        -9.9567   57.6106    9.1052 N.am        1 DN3      -0.2334
     14 C10        -8.8814   56.8436    8.7491 C.ar        1 DN3       0.0663
     15 C11        -8.2583   57.0388    7.4946 C.ar        1 DN3      -0.0321
     16 C6         -7.0811   56.3290    7.1475 C.ar        1 DN3      -0.0043
     17 C7         -6.5644   55.3744    8.0643 C.ar        1 DN3      -0.0672
     18 C8         -7.2254   55.1195    9.2775 C.ar        1 DN3      -0.0745
     19 C9         -8.3680   55.8579    9.6237 C.ar        1 DN3      -0.0410
     20 C2         -6.3780   56.6122    5.9512 C.2         1 DN3       0.1452
     21 N1         -6.8951   56.9348    4.7619 N.2         1 DN3      -0.1437
     22 N5         -5.9120   57.1514    4.0118 N.pl3       1 DN3      -0.1036
     23 N4         -4.8446   57.0162    4.5942 N.2         1 DN3      -0.0518
     24 N3         -5.0475   56.6915    5.7899 N.2         1 DN3      -0.1756
     25 H1        -10.2213   60.1894   12.1754 H           1 DN3       0.0611
     26 H2        -12.1448   61.4482   12.8382 H           1 DN3       0.0611
     27 H3        -14.1956   61.3169   11.5796 H           1 DN3       0.0594
     28 H4        -15.5869   60.1324    9.9489 H           1 DN3       0.0980
     29 H5        -14.8403   58.8349    9.0414 H           1 DN3       0.0980
     30 H6        -13.8063   60.6972    7.6710 H           1 DN3       0.2042
     31 H7        -15.6832   60.9129    6.1918 H           1 DN3       0.0778
     32 H8        -16.7369   60.3123    7.4844 H           1 DN3       0.0778
     33 H9        -15.4851   59.2735    6.7783 H           1 DN3       0.0778
     34 H10       -14.1459   62.5643    9.1030 H           1 DN3       0.0778
     35 H11       -15.8963   62.3905    8.8894 H           1 DN3       0.0778
     36 H12       -14.8562   62.8252    7.5211 H           1 DN3       0.0778
     37 H13       -12.3392   58.7211    8.8303 H           1 DN3       0.0609
     38 H14       -10.7858   57.4799    8.6075 H           1 DN3       0.2251
     39 H15        -8.6307   57.7484    6.8646 H           1 DN3       0.0504
     40 H16        -5.7315   54.8212    7.8407 H           1 DN3       0.0498
     41 H17        -6.8604   54.4186    9.9316 H           1 DN3       0.0579
     42 H18        -8.8271   55.6837   10.5226 H           1 DN3       0.0505
     43 H19        -5.9838   57.4480    3.1294 H           1 DN3       0.2946
@<TRIPOS>BOND
     1     1     2   2
     2     2     3   1
     3     2    13  am
     4     3     4  ar
     5     3    12  ar
     6     4     5  ar
     7     5     6  ar
     8     6     7  ar
     9     7     8   1
    10     7    12  ar
    11     8     9   1
    12     9    10   1
    13     9    11   1
    14    13    14   1
    15    14    15  ar
    16    14    19  ar
    17    15    16  ar
    18    16    17  ar
    19    16    20   1
    20    17    18  ar
    21    18    19  ar
    22    20    21   2
    23    20    24   1
    24    21    22   1
    25    22    23   1
    26    23    24   2
    27     4    25   1
    28     5    26   1
    29     6    27   1
    30     8    28   1
    31     8    29   1
    32     9    30   1
    33    10    31   1
    34    10    32   1
    35    10    33   1
    36    11    34   1
    37    11    35   1
    38    11    36   1
    39    12    37   1
    40    13    38   1
    41    15    39   1
    42    17    40   1
    43    18    41   1
    44    19    42   1
    45    22    43   1
@<TRIPOS>SUBSTRUCTURE
     1  DN3      2

