@<TRIPOS>MOLECULE
4de2_ligand_002
    43    45
SMALL
GAST_HUCK
****
This file was generated by PARSER (from files_GN.cpp)

@<TRIPOS>ATOM
      1 O14        -8.7014   55.6338    8.4776 O.2         1 DN3      -0.3730
      2 C13        -7.5734   55.5248    8.9381 C.2         1 DN3       0.2307
      3 C15        -7.4075   55.6142   10.3169 C.ar        1 DN3       0.0495
      4 C16        -8.2833   56.4442   11.0654 C.ar        1 DN3      -0.0484
      5 C17        -8.1188   56.6114   12.4495 C.ar        1 DN3      -0.0627
      6 C18        -7.0818   55.9405   13.1117 C.ar        1 DN3      -0.0510
      7 C19        -6.2422   55.0334   12.4246 C.ar        1 DN3       0.0068
      8 C21        -5.2080   54.2648   13.1959 C.3         1 DN3       0.0024
      9 N22        -5.6932   53.0290   13.9147 N.4         1 DN3       0.2429
     10 C23        -4.5820   52.3894   14.6805 C.3         1 DN3      -0.0419
     11 C24        -6.8896   53.1980   14.7955 C.3         1 DN3      -0.0419
     12 C20        -6.4015   54.9044   11.0199 C.ar        1 DN3      -0.0351
     13 N12        -6.5374   55.3224    8.1338 N.am        1 DN3      -0.2334
     14 C10        -6.5704   55.2922    6.7642 C.ar        1 DN3       0.0663
     15 C11        -7.3038   56.2216    5.9916 C.ar        1 DN3      -0.0321
     16 C6         -7.3761   56.0969    4.5940 C.ar        1 DN3      -0.0043
     17 C7         -6.6950   55.0475    3.9463 C.ar        1 DN3      -0.0672
     18 C8         -5.9162   54.1481    4.7017 C.ar        1 DN3      -0.0745
     19 C9         -5.8425   54.2810    6.1014 C.ar        1 DN3      -0.0410
     20 C2         -8.1512   56.9902    3.8375 C.2         1 DN3       0.1452
     21 N1         -7.8776   58.2624    3.5808 N.2         1 DN3      -0.1437
     22 N5         -8.8576   58.6574    2.8906 N.pl3       1 DN3      -0.1036
     23 N4         -9.7063   57.7785    2.7160 N.2         1 DN3      -0.0518
     24 N3         -9.3274   56.7203    3.2760 N.2         1 DN3      -0.1756
     25 H1         -9.0414   56.9599   10.6082 H           1 DN3       0.0611
     26 H2         -8.7554   57.2117   12.9638 H           1 DN3       0.0611
     27 H3         -6.9599   56.1035   14.1158 H           1 DN3       0.0594
     28 H4         -4.7320   54.9517   13.9003 H           1 DN3       0.0980
     29 H5         -4.4271   53.9565   12.4968 H           1 DN3       0.0980
     30 H6         -5.9607   52.3621   13.1893 H           1 DN3       0.2042
     31 H7         -4.8986   51.4245   15.0858 H           1 DN3       0.0778
     32 H8         -4.2675   53.0283   15.5110 H           1 DN3       0.0778
     33 H9         -3.7166   52.1960   14.0398 H           1 DN3       0.0778
     34 H10        -7.7700   53.4073   14.1895 H           1 DN3       0.0778
     35 H11        -6.7373   54.0079   15.5066 H           1 DN3       0.0778
     36 H12        -7.1031   52.2854   15.3539 H           1 DN3       0.0778
     37 H13        -5.7927   54.2567   10.5142 H           1 DN3       0.0609
     38 H14        -5.6842   55.1329    8.5452 H           1 DN3       0.2251
     39 H15        -7.8027   56.9840    6.4576 H           1 DN3       0.0504
     40 H16        -6.7369   54.9374    2.9274 H           1 DN3       0.0498
     41 H17        -5.4037   53.3987    4.2290 H           1 DN3       0.0579
     42 H18        -5.2816   53.6113    6.6360 H           1 DN3       0.0505
     43 H19        -8.9491   59.5333    2.5841 H           1 DN3       0.2946
@<TRIPOS>BOND
     1     1     2   2
     2     2     3   1
     3     2    13  am
     4     3     4  ar
     5     3    12  ar
     6     4     5  ar
     7     5     6  ar
     8     6     7  ar
     9     7     8   1
    10     7    12  ar
    11     8     9   1
    12     9    10   1
    13     9    11   1
    14    13    14   1
    15    14    15  ar
    16    14    19  ar
    17    15    16  ar
    18    16    17  ar
    19    16    20   1
    20    17    18  ar
    21    18    19  ar
    22    20    21   2
    23    20    24   1
    24    21    22   1
    25    22    23   1
    26    23    24   2
    27     4    25   1
    28     5    26   1
    29     6    27   1
    30     8    28   1
    31     8    29   1
    32     9    30   1
    33    10    31   1
    34    10    32   1
    35    10    33   1
    36    11    34   1
    37    11    35   1
    38    11    36   1
    39    12    37   1
    40    13    38   1
    41    15    39   1
    42    17    40   1
    43    18    41   1
    44    19    42   1
    45    22    43   1
@<TRIPOS>SUBSTRUCTURE
     1  DN3      2

