@<TRIPOS>MOLECULE
4de2_ligand_019
    43    45
SMALL
GAST_HUCK
****
This file was generated by PARSER (from files_GN.cpp)

@<TRIPOS>ATOM
      1 O14        -1.4045   52.9602   13.3619 O.2         1 DN3      -0.3730
      2 C13        -1.8697   52.2910   12.4470 C.2         1 DN3       0.2307
      3 C15        -1.0198   51.4094   11.7743 C.ar        1 DN3       0.0495
      4 C16         0.0587   51.8965   11.0006 C.ar        1 DN3      -0.0484
      5 C17         0.8991   51.0148   10.3038 C.ar        1 DN3      -0.0627
      6 C18         0.6947   49.6225   10.3938 C.ar        1 DN3      -0.0510
      7 C19        -0.3490   49.0927   11.1889 C.ar        1 DN3       0.0068
      8 C21        -0.5126   47.6180   11.3718 C.3         1 DN3       0.0024
      9 N22        -1.4240   46.9022   10.4202 N.4         1 DN3       0.2429
     10 C23        -2.8700   47.2510   10.5560 C.3         1 DN3      -0.0419
     11 C24        -0.9617   46.9487    9.0012 C.3         1 DN3      -0.0419
     12 C20        -1.2051   50.0017   11.8631 C.ar        1 DN3      -0.0351
     13 N12        -3.1659   52.2930   12.1615 N.am        1 DN3      -0.2334
     14 C10        -4.1852   53.0994   12.6024 C.ar        1 DN3       0.0663
     15 C11        -5.4740   52.5233   12.6407 C.ar        1 DN3      -0.0321
     16 C6         -6.6224   53.2759   12.9966 C.ar        1 DN3      -0.0043
     17 C7         -6.4490   54.6363   13.3439 C.ar        1 DN3      -0.0672
     18 C8         -5.1773   55.2280   13.3062 C.ar        1 DN3      -0.0745
     19 C9         -4.0526   54.4677   12.9465 C.ar        1 DN3      -0.0410
     20 C2         -7.9104   52.6834   12.9878 C.2         1 DN3       0.1452
     21 N1         -8.2630   51.5369   12.3873 N.2         1 DN3      -0.1437
     22 N5         -9.4882   51.3978   12.6241 N.pl3       1 DN3      -0.1036
     23 N4         -9.9422   52.3206   13.3012 N.2         1 DN3      -0.0518
     24 N3         -9.0260   53.1460   13.5615 N.2         1 DN3      -0.1756
     25 H1          0.2219   52.9064   10.9116 H           1 DN3       0.0611
     26 H2          1.6717   51.3796    9.7458 H           1 DN3       0.0611
     27 H3          1.3192   49.0011    9.8926 H           1 DN3       0.0594
     28 H4         -0.8473   47.4240   12.3913 H           1 DN3       0.0980
     29 H5          0.4718   47.1446   11.3112 H           1 DN3       0.0980
     30 H6         -1.3628   45.9155   10.6903 H           1 DN3       0.2042
     31 H7         -3.4716   46.5546    9.9685 H           1 DN3       0.0778
     32 H8         -3.0663   48.2721   10.2180 H           1 DN3       0.0778
     33 H9         -3.1840   47.1566   11.5993 H           1 DN3       0.0778
     34 H10         0.0714   46.6031    8.9336 H           1 DN3       0.0778
     35 H11        -1.0285   47.9653    8.5998 H           1 DN3       0.0778
     36 H12        -1.5761   46.2827    8.3916 H           1 DN3       0.0778
     37 H13        -1.9477   49.6346   12.4623 H           1 DN3       0.0609
     38 H14        -3.4408   51.6198   11.5160 H           1 DN3       0.2251
     39 H15        -5.5855   51.5404   12.3745 H           1 DN3       0.0504
     40 H16        -7.2545   55.2167   13.6061 H           1 DN3       0.0498
     41 H17        -5.0711   56.2217   13.5355 H           1 DN3       0.0579
     42 H18        -3.1541   54.9447   12.8782 H           1 DN3       0.0505
     43 H19        -9.9928   50.6618   12.3404 H           1 DN3       0.2946
@<TRIPOS>BOND
     1     1     2   2
     2     2     3   1
     3     2    13  am
     4     3     4  ar
     5     3    12  ar
     6     4     5  ar
     7     5     6  ar
     8     6     7  ar
     9     7     8   1
    10     7    12  ar
    11     8     9   1
    12     9    10   1
    13     9    11   1
    14    13    14   1
    15    14    15  ar
    16    14    19  ar
    17    15    16  ar
    18    16    17  ar
    19    16    20   1
    20    17    18  ar
    21    18    19  ar
    22    20    21   2
    23    20    24   1
    24    21    22   1
    25    22    23   1
    26    23    24   2
    27     4    25   1
    28     5    26   1
    29     6    27   1
    30     8    28   1
    31     8    29   1
    32     9    30   1
    33    10    31   1
    34    10    32   1
    35    10    33   1
    36    11    34   1
    37    11    35   1
    38    11    36   1
    39    12    37   1
    40    13    38   1
    41    15    39   1
    42    17    40   1
    43    18    41   1
    44    19    42   1
    45    22    43   1
@<TRIPOS>SUBSTRUCTURE
     1  DN3      2

