@<TRIPOS>MOLECULE
4de2_ligand_022
    43    45
SMALL
GAST_HUCK
****
This file was generated by PARSER (from files_GN.cpp)

@<TRIPOS>ATOM
      1 O14        -5.5985   52.8349    8.2924 O.2         1 DN3      -0.3730
      2 C13        -4.9927   53.2454    7.2972 C.2         1 DN3       0.2307
      3 C15        -3.9701   52.4796    6.8148 C.ar        1 DN3       0.0495
      4 C16        -2.7815   52.3428    7.5742 C.ar        1 DN3      -0.0484
      5 C17        -1.7087   51.5854    7.0974 C.ar        1 DN3      -0.0627
      6 C18        -1.8176   50.9065    5.8677 C.ar        1 DN3      -0.0510
      7 C19        -3.0036   50.9831    5.1029 C.ar        1 DN3       0.0068
      8 C21        -3.1677   50.1876    3.8496 C.3         1 DN3       0.0024
      9 N22        -2.8855   50.9007    2.5585 N.4         1 DN3       0.2429
     10 C23        -3.8535   51.9928    2.2420 C.3         1 DN3      -0.0419
     11 C24        -1.4689   51.3556    2.4134 C.3         1 DN3      -0.0419
     12 C20        -4.0655   51.7954    5.5716 C.ar        1 DN3      -0.0351
     13 N12        -5.3518   54.3555    6.6389 N.am        1 DN3      -0.2334
     14 C10        -6.2813   55.2829    6.9986 C.ar        1 DN3       0.0663
     15 C11        -6.9230   56.0149    5.9637 C.ar        1 DN3      -0.0321
     16 C6         -8.0011   56.8928    6.2471 C.ar        1 DN3      -0.0043
     17 C7         -8.3914   57.0876    7.5904 C.ar        1 DN3      -0.0672
     18 C8         -7.6916   56.4573    8.6310 C.ar        1 DN3      -0.0745
     19 C9         -6.6432   55.5765    8.3372 C.ar        1 DN3      -0.0410
     20 C2         -8.7142   57.5103    5.2110 C.2         1 DN3       0.1452
     21 N1         -8.2796   58.4508    4.3488 N.2         1 DN3      -0.1437
     22 N5         -9.2584   58.6698    3.5873 N.pl3       1 DN3      -0.1036
     23 N4        -10.2520   58.0028    3.8829 N.2         1 DN3      -0.0518
     24 N3         -9.9882   57.2666    4.8738 N.2         1 DN3      -0.1756
     25 H1         -2.6751   52.8351    8.4699 H           1 DN3       0.0611
     26 H2         -0.8586   51.4976    7.6565 H           1 DN3       0.0611
     27 H3         -1.0345   50.3423    5.5413 H           1 DN3       0.0594
     28 H4         -4.1833   49.7863    3.8158 H           1 DN3       0.0980
     29 H5         -2.5187   49.3014    3.8955 H           1 DN3       0.0980
     30 H6         -3.0278   50.1908    1.8248 H           1 DN3       0.2042
     31 H7         -3.6539   52.4146    1.2543 H           1 DN3       0.0778
     32 H8         -3.7853   52.7890    2.9794 H           1 DN3       0.0778
     33 H9         -4.8722   51.6065    2.2316 H           1 DN3       0.0778
     34 H10        -0.7871   50.5402    2.6581 H           1 DN3       0.0778
     35 H11        -1.2565   52.2000    3.0697 H           1 DN3       0.0778
     36 H12        -1.2690   51.6548    1.3843 H           1 DN3       0.0778
     37 H13        -4.9300   51.8549    5.0323 H           1 DN3       0.0609
     38 H14        -4.9278   54.4764    5.7783 H           1 DN3       0.2251
     39 H15        -6.6455   55.8408    4.9974 H           1 DN3       0.0504
     40 H16        -9.1669   57.7253    7.8195 H           1 DN3       0.0498
     41 H17        -7.9615   56.6394    9.6073 H           1 DN3       0.0579
     42 H18        -6.1455   55.1505    9.1209 H           1 DN3       0.0505
     43 H19        -9.2816   59.3527    2.9505 H           1 DN3       0.2946
@<TRIPOS>BOND
     1     1     2   2
     2     2     3   1
     3     2    13  am
     4     3     4  ar
     5     3    12  ar
     6     4     5  ar
     7     5     6  ar
     8     6     7  ar
     9     7     8   1
    10     7    12  ar
    11     8     9   1
    12     9    10   1
    13     9    11   1
    14    13    14   1
    15    14    15  ar
    16    14    19  ar
    17    15    16  ar
    18    16    17  ar
    19    16    20   1
    20    17    18  ar
    21    18    19  ar
    22    20    21   2
    23    20    24   1
    24    21    22   1
    25    22    23   1
    26    23    24   2
    27     4    25   1
    28     5    26   1
    29     6    27   1
    30     8    28   1
    31     8    29   1
    32     9    30   1
    33    10    31   1
    34    10    32   1
    35    10    33   1
    36    11    34   1
    37    11    35   1
    38    11    36   1
    39    12    37   1
    40    13    38   1
    41    15    39   1
    42    17    40   1
    43    18    41   1
    44    19    42   1
    45    22    43   1
@<TRIPOS>SUBSTRUCTURE
     1  DN3      2

