@<TRIPOS>MOLECULE
4de2_ligand_043
    43    45
SMALL
GAST_HUCK
****
This file was generated by PARSER (from files_GN.cpp)

@<TRIPOS>ATOM
      1 O14        -2.0333   51.6632    5.2672 O.2         1 DN3      -0.3730
      2 C13        -3.2134   52.0053    5.3663 C.2         1 DN3       0.2307
      3 C15        -4.0291   51.9987    4.2152 C.ar        1 DN3       0.0495
      4 C16        -3.5014   51.6100    2.9492 C.ar        1 DN3      -0.0484
      5 C17        -4.3017   51.6228    1.7977 C.ar        1 DN3      -0.0627
      6 C18        -5.6451   52.0429    1.8612 C.ar        1 DN3      -0.0510
      7 C19        -6.1995   52.4791    3.0803 C.ar        1 DN3       0.0068
      8 C21        -7.6012   52.9835    3.1585 C.3         1 DN3       0.0024
      9 N22        -7.7804   54.4746    3.2588 N.4         1 DN3       0.2429
     10 C23        -6.8104   55.1560    4.1733 C.3         1 DN3      -0.0419
     11 C24        -7.9262   55.1551    1.9407 C.3         1 DN3      -0.0419
     12 C20        -5.3860   52.4481    4.2401 C.ar        1 DN3      -0.0351
     13 N12        -3.6932   52.3476    6.5762 N.am        1 DN3      -0.2334
     14 C10        -2.9865   52.5382    7.7265 C.ar        1 DN3       0.0663
     15 C11        -1.7148   53.1659    7.7566 C.ar        1 DN3      -0.0321
     16 C6         -1.0296   53.4007    8.9753 C.ar        1 DN3      -0.0043
     17 C7         -1.6853   53.0213   10.1730 C.ar        1 DN3      -0.0672
     18 C8         -2.9746   52.4631   10.1637 C.ar        1 DN3      -0.0745
     19 C9         -3.6341   52.2278    8.9421 C.ar        1 DN3      -0.0410
     20 C2          0.2617   53.9889    8.9752 C.2         1 DN3       0.1452
     21 N1          0.9482   54.4357   10.0425 N.2         1 DN3      -0.1437
     22 N5          2.0274   54.8738    9.5848 N.pl3       1 DN3      -0.1036
     23 N4          2.0789   54.7753    8.3555 N.2         1 DN3      -0.0518
     24 N3          1.0474   54.2254    7.9075 N.2         1 DN3      -0.1756
     25 H1         -2.5294   51.3248    2.8500 H           1 DN3       0.0611
     26 H2         -3.9099   51.3243    0.8929 H           1 DN3       0.0611
     27 H3         -6.2107   52.0597    0.9953 H           1 DN3       0.0594
     28 H4         -8.0797   52.5350    4.0317 H           1 DN3       0.0980
     29 H5         -8.1752   52.5996    2.3008 H           1 DN3       0.0980
     30 H6         -8.6958   54.6004    3.7189 H           1 DN3       0.2042
     31 H7         -7.1268   56.1892    4.3707 H           1 DN3       0.0778
     32 H8         -5.8191   55.1686    3.7413 H           1 DN3       0.0778
     33 H9         -6.7821   54.6303    5.1316 H           1 DN3       0.0778
     34 H10        -8.7431   54.7038    1.3709 H           1 DN3       0.0778
     35 H11        -7.0054   55.0783    1.3608 H           1 DN3       0.0778
     36 H12        -8.1797   56.2078    2.0771 H           1 DN3       0.0778
     37 H13        -5.7919   52.7808    5.1147 H           1 DN3       0.0609
     38 H14        -4.6678   52.4419    6.6294 H           1 DN3       0.2251
     39 H15        -1.2964   53.4348    6.8623 H           1 DN3       0.0504
     40 H16        -1.2368   53.2099   11.0764 H           1 DN3       0.0498
     41 H17        -3.4334   52.2159   11.0495 H           1 DN3       0.0579
     42 H18        -4.5672   51.7957    8.9526 H           1 DN3       0.0505
     43 H19         2.6540   55.3452   10.0932 H           1 DN3       0.2946
@<TRIPOS>BOND
     1     1     2   2
     2     2     3   1
     3     2    13  am
     4     3     4  ar
     5     3    12  ar
     6     4     5  ar
     7     5     6  ar
     8     6     7  ar
     9     7     8   1
    10     7    12  ar
    11     8     9   1
    12     9    10   1
    13     9    11   1
    14    13    14   1
    15    14    15  ar
    16    14    19  ar
    17    15    16  ar
    18    16    17  ar
    19    16    20   1
    20    17    18  ar
    21    18    19  ar
    22    20    21   2
    23    20    24   1
    24    21    22   1
    25    22    23   1
    26    23    24   2
    27     4    25   1
    28     5    26   1
    29     6    27   1
    30     8    28   1
    31     8    29   1
    32     9    30   1
    33    10    31   1
    34    10    32   1
    35    10    33   1
    36    11    34   1
    37    11    35   1
    38    11    36   1
    39    12    37   1
    40    13    38   1
    41    15    39   1
    42    17    40   1
    43    18    41   1
    44    19    42   1
    45    22    43   1
@<TRIPOS>SUBSTRUCTURE
     1  DN3      2

