@<TRIPOS>MOLECULE
4de2_ligand_018
    43    45
SMALL
GAST_HUCK
****
This file was generated by PARSER (from files_GN.cpp)

@<TRIPOS>ATOM
      1 O14        -2.7826   51.3418   11.1998 O.2         1 DN3      -0.3730
      2 C13        -2.8987   52.4523   11.6923 C.2         1 DN3       0.2307
      3 C15        -3.7580   52.6267   12.7687 C.ar        1 DN3       0.0495
      4 C16        -3.8197   51.6450   13.7876 C.ar        1 DN3      -0.0484
      5 C17        -4.6900   51.8009   14.8749 C.ar        1 DN3      -0.0627
      6 C18        -5.5234   52.9276   14.9589 C.ar        1 DN3      -0.0510
      7 C19        -5.5017   53.9095   13.9415 C.ar        1 DN3       0.0068
      8 C21        -6.4778   55.0363   13.9633 C.3         1 DN3       0.0024
      9 N22        -7.6114   54.8687   12.9908 N.4         1 DN3       0.2429
     10 C23        -8.4304   53.6361   13.2113 C.3         1 DN3      -0.0419
     11 C24        -8.4761   56.0846   12.9186 C.3         1 DN3      -0.0419
     12 C20        -4.6072   53.7533   12.8599 C.ar        1 DN3      -0.0351
     13 N12        -2.1212   53.4604   11.3120 N.am        1 DN3      -0.2334
     14 C10        -1.2373   53.5007   10.2720 C.ar        1 DN3       0.0663
     15 C11        -1.4610   52.8667    9.0261 C.ar        1 DN3      -0.0321
     16 C6         -0.5663   53.0366    7.9487 C.ar        1 DN3      -0.0043
     17 C7          0.5786   53.8416    8.1271 C.ar        1 DN3      -0.0672
     18 C8          0.8358   54.4440    9.3724 C.ar        1 DN3      -0.0745
     19 C9         -0.0707   54.2805   10.4320 C.ar        1 DN3      -0.0410
     20 C2         -0.8501   52.4382    6.6935 C.2         1 DN3       0.1452
     21 N1         -0.5993   52.9374    5.4850 N.2         1 DN3      -0.1437
     22 N5         -1.0422   52.0818    4.6708 N.pl3       1 DN3      -0.1036
     23 N4         -1.5082   51.0986    5.2416 N.2         1 DN3      -0.0518
     24 N3         -1.4332   51.2519    6.4881 N.2         1 DN3      -0.1756
     25 H1         -3.2193   50.8160   13.7521 H           1 DN3       0.0611
     26 H2         -4.7161   51.0859   15.6036 H           1 DN3       0.0611
     27 H3         -6.1681   53.0060   15.7470 H           1 DN3       0.0594
     28 H4         -5.9281   55.9540   13.7290 H           1 DN3       0.0980
     29 H5         -6.8796   55.1709   14.9712 H           1 DN3       0.0980
     30 H6         -7.1868   54.7686   12.0657 H           1 DN3       0.2042
     31 H7         -9.2427   53.5707   12.4846 H           1 DN3       0.0778
     32 H8         -8.8605   53.6222   14.2141 H           1 DN3       0.0778
     33 H9         -7.8188   52.7413   13.0817 H           1 DN3       0.0778
     34 H10        -7.8832   56.9601   12.6474 H           1 DN3       0.0778
     35 H11        -8.9673   56.2757   13.8735 H           1 DN3       0.0778
     36 H12        -9.2452   55.9629   12.1535 H           1 DN3       0.0778
     37 H13        -4.5997   54.4561   12.1136 H           1 DN3       0.0609
     38 H14        -2.1365   54.2477   11.8784 H           1 DN3       0.2251
     39 H15        -2.3251   52.3370    8.8811 H           1 DN3       0.0504
     40 H16         1.2499   53.9794    7.3679 H           1 DN3       0.0498
     41 H17         1.6765   55.0120    9.5041 H           1 DN3       0.0579
     42 H18         0.1183   54.7343   11.3239 H           1 DN3       0.0505
     43 H19        -1.0101   52.1766    3.7431 H           1 DN3       0.2946
@<TRIPOS>BOND
     1     1     2   2
     2     2     3   1
     3     2    13  am
     4     3     4  ar
     5     3    12  ar
     6     4     5  ar
     7     5     6  ar
     8     6     7  ar
     9     7     8   1
    10     7    12  ar
    11     8     9   1
    12     9    10   1
    13     9    11   1
    14    13    14   1
    15    14    15  ar
    16    14    19  ar
    17    15    16  ar
    18    16    17  ar
    19    16    20   1
    20    17    18  ar
    21    18    19  ar
    22    20    21   2
    23    20    24   1
    24    21    22   1
    25    22    23   1
    26    23    24   2
    27     4    25   1
    28     5    26   1
    29     6    27   1
    30     8    28   1
    31     8    29   1
    32     9    30   1
    33    10    31   1
    34    10    32   1
    35    10    33   1
    36    11    34   1
    37    11    35   1
    38    11    36   1
    39    12    37   1
    40    13    38   1
    41    15    39   1
    42    17    40   1
    43    18    41   1
    44    19    42   1
    45    22    43   1
@<TRIPOS>SUBSTRUCTURE
     1  DN3      2

