@<TRIPOS>MOLECULE
4de2_ligand_036
    43    45
SMALL
GAST_HUCK
****
This file was generated by PARSER (from files_GN.cpp)

@<TRIPOS>ATOM
      1 O14       -10.4222   55.2117    9.2857 O.2         1 DN3      -0.3730
      2 C13       -11.0256   55.7207   10.2198 C.2         1 DN3       0.2307
      3 C15       -12.3126   56.1542   10.0016 C.ar        1 DN3       0.0495
      4 C16       -13.3951   55.2921   10.2698 C.ar        1 DN3      -0.0484
      5 C17       -14.7122   55.7076   10.0091 C.ar        1 DN3      -0.0627
      6 C18       -14.9578   56.9909    9.4942 C.ar        1 DN3      -0.0510
      7 C19       -13.8919   57.8837    9.2370 C.ar        1 DN3       0.0068
      8 C21       -14.1623   59.2284    8.6465 C.3         1 DN3       0.0024
      9 N22       -14.1938   59.3619    7.1384 N.4         1 DN3       0.2429
     10 C23       -13.7970   58.1671    6.3367 C.3         1 DN3      -0.0419
     11 C24       -15.4530   59.9642    6.6194 C.3         1 DN3      -0.0419
     12 C20       -12.5668   57.4528    9.5004 C.ar        1 DN3      -0.0351
     13 N12       -10.4848   55.8997   11.4192 N.am        1 DN3      -0.2334
     14 C10        -9.2356   55.5201   11.8101 C.ar        1 DN3       0.0663
     15 C11        -8.7890   54.1790   11.7376 C.ar        1 DN3      -0.0321
     16 C6         -7.5333   53.7995   12.2764 C.ar        1 DN3      -0.0043
     17 C7         -6.7055   54.8054   12.8281 C.ar        1 DN3      -0.0672
     18 C8         -7.1316   56.1440   12.8761 C.ar        1 DN3      -0.0745
     19 C9         -8.4008   56.4962   12.3929 C.ar        1 DN3      -0.0410
     20 C2         -7.1098   52.4496   12.2821 C.2         1 DN3       0.1452
     21 N1         -7.5737   51.4354   11.5390 N.2         1 DN3      -0.1437
     22 N5         -6.9004   50.4309   11.8813 N.pl3       1 DN3      -0.1036
     23 N4         -6.0805   50.6955   12.7578 N.2         1 DN3      -0.0518
     24 N3         -6.1511   51.9158   13.0503 N.2         1 DN3      -0.1756
     25 H1        -13.2305   54.3456   10.6241 H           1 DN3       0.0611
     26 H2        -15.4914   55.0729   10.1986 H           1 DN3       0.0611
     27 H3        -15.9265   57.2740    9.3120 H           1 DN3       0.0594
     28 H4        -13.3905   59.9167    8.9948 H           1 DN3       0.0980
     29 H5        -15.0837   59.6089    9.1018 H           1 DN3       0.0980
     30 H6        -13.4739   60.0566    6.9311 H           1 DN3       0.2042
     31 H7        -13.7291   58.4152    5.2759 H           1 DN3       0.0778
     32 H8        -14.5174   57.3558    6.4589 H           1 DN3       0.0778
     33 H9        -12.8140   57.8165    6.6433 H           1 DN3       0.0778
     34 H10       -15.6613   60.9113    7.1218 H           1 DN3       0.0778
     35 H11       -16.3027   59.2937    6.7728 H           1 DN3       0.0778
     36 H12       -15.3729   60.1838    5.5517 H           1 DN3       0.0778
     37 H13       -11.7848   58.0893    9.3114 H           1 DN3       0.0609
     38 H14       -11.0033   56.4220   12.0542 H           1 DN3       0.2251
     39 H15        -9.4161   53.4681   11.3484 H           1 DN3       0.0504
     40 H16        -5.7843   54.5723   13.2099 H           1 DN3       0.0498
     41 H17        -6.5191   56.8583   13.2737 H           1 DN3       0.0579
     42 H18        -8.7088   57.4710   12.4504 H           1 DN3       0.0505
     43 H19        -6.9782   49.5882   11.4830 H           1 DN3       0.2946
@<TRIPOS>BOND
     1     1     2   2
     2     2     3   1
     3     2    13  am
     4     3     4  ar
     5     3    12  ar
     6     4     5  ar
     7     5     6  ar
     8     6     7  ar
     9     7     8   1
    10     7    12  ar
    11     8     9   1
    12     9    10   1
    13     9    11   1
    14    13    14   1
    15    14    15  ar
    16    14    19  ar
    17    15    16  ar
    18    16    17  ar
    19    16    20   1
    20    17    18  ar
    21    18    19  ar
    22    20    21   2
    23    20    24   1
    24    21    22   1
    25    22    23   1
    26    23    24   2
    27     4    25   1
    28     5    26   1
    29     6    27   1
    30     8    28   1
    31     8    29   1
    32     9    30   1
    33    10    31   1
    34    10    32   1
    35    10    33   1
    36    11    34   1
    37    11    35   1
    38    11    36   1
    39    12    37   1
    40    13    38   1
    41    15    39   1
    42    17    40   1
    43    18    41   1
    44    19    42   1
    45    22    43   1
@<TRIPOS>SUBSTRUCTURE
     1  DN3      2

