@<TRIPOS>MOLECULE
4de2_ligand_007
    43    45
SMALL
GAST_HUCK
****
This file was generated by PARSER (from files_GN.cpp)

@<TRIPOS>ATOM
      1 O14        -6.3127   53.9276    9.6637 O.2         1 DN3      -0.3730
      2 C13        -6.3673   54.7473   10.5801 C.2         1 DN3       0.2307
      3 C15        -5.9009   54.3900   11.8458 C.ar        1 DN3       0.0495
      4 C16        -6.2564   55.1040   13.0249 C.ar        1 DN3      -0.0484
      5 C17        -5.7313   54.7594   14.2750 C.ar        1 DN3      -0.0627
      6 C18        -4.7951   53.7164   14.3813 C.ar        1 DN3      -0.0510
      7 C19        -4.4071   52.9733   13.2428 C.ar        1 DN3       0.0068
      8 C21        -3.3260   51.9368   13.3185 C.3         1 DN3       0.0024
      9 N22        -2.0680   52.2287   12.5407 N.4         1 DN3       0.2429
     10 C23        -1.6533   53.6683   12.4834 C.3         1 DN3      -0.0419
     11 C24        -0.9403   51.3598   12.9881 C.3         1 DN3      -0.0419
     12 C20        -4.9859   53.3082   12.0018 C.ar        1 DN3      -0.0351
     13 N12        -6.9251   55.9310   10.3281 N.am        1 DN3      -0.2334
     14 C10        -7.4418   56.3926    9.1464 C.ar        1 DN3       0.0663
     15 C11        -6.7787   56.2808    7.9031 C.ar        1 DN3      -0.0321
     16 C6         -7.3771   56.7404    6.7025 C.ar        1 DN3      -0.0043
     17 C7         -8.6730   57.3054    6.7762 C.ar        1 DN3      -0.0672
     18 C8         -9.3239   57.4491    8.0089 C.ar        1 DN3      -0.0745
     19 C9         -8.6954   57.0295    9.1881 C.ar        1 DN3      -0.0410
     20 C2         -6.7005   56.6557    5.4606 C.2         1 DN3       0.1452
     21 N1         -7.2091   56.8314    4.2279 N.2         1 DN3      -0.1437
     22 N5         -6.2489   56.6316    3.4381 N.pl3       1 DN3      -0.1036
     23 N4         -5.1982   56.3767    4.0299 N.2         1 DN3      -0.0518
     24 N3         -5.3994   56.3679    5.2700 N.2         1 DN3      -0.1756
     25 H1         -6.9158   55.8822   12.9863 H           1 DN3       0.0611
     26 H2         -5.9970   55.2814   15.1141 H           1 DN3       0.0611
     27 H3         -4.4054   53.4957   15.3068 H           1 DN3       0.0594
     28 H4         -3.7460   50.9952   12.9443 H           1 DN3       0.0980
     29 H5         -3.0817   51.7540   14.3693 H           1 DN3       0.0980
     30 H6         -2.2717   51.9580   11.5761 H           1 DN3       0.2042
     31 H7         -0.7271   53.7754   11.9105 H           1 DN3       0.0778
     32 H8         -1.5009   54.0749   13.4846 H           1 DN3       0.0778
     33 H9         -2.4010   54.2633   11.9662 H           1 DN3       0.0778
     34 H10        -1.2357   50.3087   12.9886 H           1 DN3       0.0778
     35 H11        -0.6160   51.6284   13.9957 H           1 DN3       0.0778
     36 H12        -0.0923   51.4564   12.3154 H           1 DN3       0.0778
     37 H13        -4.6976   52.7702   11.1703 H           1 DN3       0.0609
     38 H14        -7.0469   56.5261   11.0921 H           1 DN3       0.2251
     39 H15        -5.8372   55.8588    7.8630 H           1 DN3       0.0504
     40 H16        -9.1565   57.6295    5.9309 H           1 DN3       0.0498
     41 H17       -10.2529   57.8582    8.0609 H           1 DN3       0.0579
     42 H18        -9.1747   57.1408   10.0871 H           1 DN3       0.0505
     43 H19        -6.3131   56.6882    2.5093 H           1 DN3       0.2946
@<TRIPOS>BOND
     1     1     2   2
     2     2     3   1
     3     2    13  am
     4     3     4  ar
     5     3    12  ar
     6     4     5  ar
     7     5     6  ar
     8     6     7  ar
     9     7     8   1
    10     7    12  ar
    11     8     9   1
    12     9    10   1
    13     9    11   1
    14    13    14   1
    15    14    15  ar
    16    14    19  ar
    17    15    16  ar
    18    16    17  ar
    19    16    20   1
    20    17    18  ar
    21    18    19  ar
    22    20    21   2
    23    20    24   1
    24    21    22   1
    25    22    23   1
    26    23    24   2
    27     4    25   1
    28     5    26   1
    29     6    27   1
    30     8    28   1
    31     8    29   1
    32     9    30   1
    33    10    31   1
    34    10    32   1
    35    10    33   1
    36    11    34   1
    37    11    35   1
    38    11    36   1
    39    12    37   1
    40    13    38   1
    41    15    39   1
    42    17    40   1
    43    18    41   1
    44    19    42   1
    45    22    43   1
@<TRIPOS>SUBSTRUCTURE
     1  DN3      2

