@<TRIPOS>MOLECULE
4de2_ligand_003
    43    45
SMALL
GAST_HUCK
****
This file was generated by PARSER (from files_GN.cpp)

@<TRIPOS>ATOM
      1 O14        -8.3013   54.2428   10.1488 O.2         1 DN3      -0.3730
      2 C13        -7.0945   54.3341    9.9668 C.2         1 DN3       0.2307
      3 C15        -6.2665   54.3994   11.0712 C.ar        1 DN3       0.0495
      4 C16        -6.3976   55.4623   11.9949 C.ar        1 DN3      -0.0484
      5 C17        -5.5683   55.5369   13.1258 C.ar        1 DN3      -0.0627
      6 C18        -4.6282   54.5240   13.3722 C.ar        1 DN3      -0.0510
      7 C19        -4.4673   53.4506   12.4627 C.ar        1 DN3       0.0068
      8 C21        -3.4531   52.3917   12.7448 C.3         1 DN3       0.0024
      9 N22        -2.0956   52.6199   12.1536 N.4         1 DN3       0.2429
     10 C23        -1.5051   53.9845   12.3400 C.3         1 DN3      -0.0419
     11 C24        -1.1330   51.5639   12.6041 C.3         1 DN3      -0.0419
     12 C20        -5.2854   53.4113   11.3063 C.ar        1 DN3      -0.0351
     13 N12        -6.5727   54.4561    8.7528 N.am        1 DN3      -0.2334
     14 C10        -7.2880   54.4590    7.5904 C.ar        1 DN3       0.0663
     15 C11        -7.2697   55.6027    6.7643 C.ar        1 DN3      -0.0321
     16 C6         -8.0734   55.6630    5.6015 C.ar        1 DN3      -0.0043
     17 C7         -8.8546   54.5432    5.2443 C.ar        1 DN3      -0.0672
     18 C8         -8.8170   53.3715    6.0222 C.ar        1 DN3      -0.0745
     19 C9         -8.0546   53.3382    7.2058 C.ar        1 DN3      -0.0410
     20 C2         -8.1434   56.8555    4.8486 C.2         1 DN3       0.1452
     21 N1         -9.2470   57.4751    4.4239 N.2         1 DN3      -0.1437
     22 N5         -8.8426   58.5435    3.8872 N.pl3       1 DN3      -0.1036
     23 N4         -7.6178   58.6447    3.9407 N.2         1 DN3      -0.0518
     24 N3         -7.1211   57.6465    4.5224 N.2         1 DN3      -0.1756
     25 H1         -7.0739   56.2107   11.8344 H           1 DN3       0.0611
     26 H2         -5.6551   56.3188   13.7775 H           1 DN3       0.0611
     27 H3         -4.0557   54.5700   14.2200 H           1 DN3       0.0594
     28 H4         -3.8584   51.4560   12.3462 H           1 DN3       0.0980
     29 H5         -3.3716   52.2466   13.8264 H           1 DN3       0.0980
     30 H6         -2.1989   52.4999   11.1442 H           1 DN3       0.2042
     31 H7         -0.5208   54.0305   11.8817 H           1 DN3       0.0778
     32 H8         -1.4305   54.2720   13.3935 H           1 DN3       0.0778
     33 H9         -2.1056   54.7223   11.8152 H           1 DN3       0.0778
     34 H10        -1.5318   50.5697   12.3899 H           1 DN3       0.0778
     35 H11        -0.9384   51.6417   13.6791 H           1 DN3       0.0778
     36 H12        -0.1863   51.6538   12.0733 H           1 DN3       0.0778
     37 H13        -5.1929   52.6205   10.6579 H           1 DN3       0.0609
     38 H14        -5.6383   54.6999    8.6913 H           1 DN3       0.2251
     39 H15        -6.7218   56.4177    7.0572 H           1 DN3       0.0504
     40 H16        -9.4445   54.5589    4.4094 H           1 DN3       0.0498
     41 H17        -9.3617   52.5545    5.7444 H           1 DN3       0.0579
     42 H18        -8.0587   52.4884    7.7818 H           1 DN3       0.0505
     43 H19        -9.3995   59.2683    3.6889 H           1 DN3       0.2946
@<TRIPOS>BOND
     1     1     2   2
     2     2     3   1
     3     2    13  am
     4     3     4  ar
     5     3    12  ar
     6     4     5  ar
     7     5     6  ar
     8     6     7  ar
     9     7     8   1
    10     7    12  ar
    11     8     9   1
    12     9    10   1
    13     9    11   1
    14    13    14   1
    15    14    15  ar
    16    14    19  ar
    17    15    16  ar
    18    16    17  ar
    19    16    20   1
    20    17    18  ar
    21    18    19  ar
    22    20    21   2
    23    20    24   1
    24    21    22   1
    25    22    23   1
    26    23    24   2
    27     4    25   1
    28     5    26   1
    29     6    27   1
    30     8    28   1
    31     8    29   1
    32     9    30   1
    33    10    31   1
    34    10    32   1
    35    10    33   1
    36    11    34   1
    37    11    35   1
    38    11    36   1
    39    12    37   1
    40    13    38   1
    41    15    39   1
    42    17    40   1
    43    18    41   1
    44    19    42   1
    45    22    43   1
@<TRIPOS>SUBSTRUCTURE
     1  DN3      2

