@<TRIPOS>MOLECULE
4de2_ligand_027
    43    45
SMALL
GAST_HUCK
****
This file was generated by PARSER (from files_GN.cpp)

@<TRIPOS>ATOM
      1 O14        -9.7391   56.3107   12.8005 O.2         1 DN3      -0.3730
      2 C13        -9.2421   57.2165   12.1375 C.2         1 DN3       0.2307
      3 C15       -10.0511   58.2969   11.7393 C.ar        1 DN3       0.0495
      4 C16        -9.7411   59.0823   10.5970 C.ar        1 DN3      -0.0484
      5 C17       -10.5505   60.1679   10.2150 C.ar        1 DN3      -0.0627
      6 C18       -11.6924   60.4948   10.9616 C.ar        1 DN3      -0.0510
      7 C19       -12.0444   59.7383   12.1011 C.ar        1 DN3       0.0068
      8 C21       -13.2445   60.1161   12.8990 C.3         1 DN3       0.0024
      9 N22       -14.5012   59.5362   12.2998 N.4         1 DN3       0.2429
     10 C23       -14.9815   58.3080   13.0014 C.3         1 DN3      -0.0419
     11 C24       -15.5968   60.5358   12.1450 C.3         1 DN3      -0.0419
     12 C20       -11.2234   58.6431   12.4652 C.ar        1 DN3      -0.0351
     13 N12        -7.9603   57.1311   11.7885 N.am        1 DN3      -0.2334
     14 C10        -7.1209   56.0771   12.0026 C.ar        1 DN3       0.0663
     15 C11        -6.9118   55.1368   10.9719 C.ar        1 DN3      -0.0321
     16 C6         -5.9612   54.0965   11.1089 C.ar        1 DN3      -0.0043
     17 C7         -5.2178   54.0100   12.3084 C.ar        1 DN3      -0.0672
     18 C8         -5.4346   54.9297   13.3500 C.ar        1 DN3      -0.0745
     19 C9         -6.3808   55.9616   13.1979 C.ar        1 DN3      -0.0410
     20 C2         -5.7509   53.1622   10.0675 C.2         1 DN3       0.1452
     21 N1         -6.6166   52.8152    9.1097 N.2         1 DN3      -0.1437
     22 N5         -6.0201   51.9578    8.4093 N.pl3       1 DN3      -0.1036
     23 N4         -4.8813   51.7370    8.8172 N.2         1 DN3      -0.0518
     24 N3         -4.6489   52.4373    9.8359 N.2         1 DN3      -0.1756
     25 H1         -8.9303   58.8618   10.0137 H           1 DN3       0.0611
     26 H2        -10.3101   60.7253    9.3923 H           1 DN3       0.0611
     27 H3        -12.2604   61.2973   10.6744 H           1 DN3       0.0594
     28 H4        -13.2821   61.2108   12.9497 H           1 DN3       0.0980
     29 H5        -13.1167   59.8010   13.9395 H           1 DN3       0.0980
     30 H6        -14.2710   59.2386   11.3486 H           1 DN3       0.2042
     31 H7        -15.8546   57.8848   12.4985 H           1 DN3       0.0778
     32 H8        -15.2554   58.5300   14.0358 H           1 DN3       0.0778
     33 H9        -14.2026   57.5437   13.0025 H           1 DN3       0.0778
     34 H10       -15.2544   61.3720   11.5329 H           1 DN3       0.0778
     35 H11       -15.9159   60.9176   13.1172 H           1 DN3       0.0778
     36 H12       -16.4604   60.0971   11.6393 H           1 DN3       0.0778
     37 H13       -11.4741   58.1045   13.2976 H           1 DN3       0.0609
     38 H14        -7.5966   57.8568   11.2610 H           1 DN3       0.2251
     39 H15        -7.4339   55.2364   10.0981 H           1 DN3       0.0504
     40 H16        -4.5312   53.2622   12.4464 H           1 DN3       0.0498
     41 H17        -4.8961   54.8502   14.2161 H           1 DN3       0.0579
     42 H18        -6.5052   56.6440   13.9492 H           1 DN3       0.0505
     43 H19        -6.4057   51.5225    7.6766 H           1 DN3       0.2946
@<TRIPOS>BOND
     1     1     2   2
     2     2     3   1
     3     2    13  am
     4     3     4  ar
     5     3    12  ar
     6     4     5  ar
     7     5     6  ar
     8     6     7  ar
     9     7     8   1
    10     7    12  ar
    11     8     9   1
    12     9    10   1
    13     9    11   1
    14    13    14   1
    15    14    15  ar
    16    14    19  ar
    17    15    16  ar
    18    16    17  ar
    19    16    20   1
    20    17    18  ar
    21    18    19  ar
    22    20    21   2
    23    20    24   1
    24    21    22   1
    25    22    23   1
    26    23    24   2
    27     4    25   1
    28     5    26   1
    29     6    27   1
    30     8    28   1
    31     8    29   1
    32     9    30   1
    33    10    31   1
    34    10    32   1
    35    10    33   1
    36    11    34   1
    37    11    35   1
    38    11    36   1
    39    12    37   1
    40    13    38   1
    41    15    39   1
    42    17    40   1
    43    18    41   1
    44    19    42   1
    45    22    43   1
@<TRIPOS>SUBSTRUCTURE
     1  DN3      2

