@<TRIPOS>MOLECULE
4de2_ligand_023
    43    45
SMALL
GAST_HUCK
****
This file was generated by PARSER (from files_GN.cpp)

@<TRIPOS>ATOM
      1 O14        -2.3781   50.8050   11.0491 O.2         1 DN3      -0.3730
      2 C13        -2.6868   49.6591   11.3633 C.2         1 DN3       0.2307
      3 C15        -1.7005   48.6646   11.4078 C.ar        1 DN3       0.0495
      4 C16        -0.4242   48.8760   10.8225 C.ar        1 DN3      -0.0484
      5 C17         0.5858   47.9033   10.8995 C.ar        1 DN3      -0.0627
      6 C18         0.3657   46.7142   11.6082 C.ar        1 DN3      -0.0510
      7 C19        -0.8921   46.4524   12.2004 C.ar        1 DN3       0.0068
      8 C21        -1.1602   45.1560   12.8832 C.3         1 DN3       0.0024
      9 N22        -0.9983   45.1967   14.3769 N.4         1 DN3       0.2429
     10 C23        -1.8758   46.1915   15.0656 C.3         1 DN3      -0.0419
     11 C24        -1.1593   43.8421   14.9839 C.3         1 DN3      -0.0419
     12 C20        -1.9088   47.4348   12.0914 C.ar        1 DN3      -0.0351
     13 N12        -3.9631   49.3689   11.6155 N.am        1 DN3      -0.2334
     14 C10        -5.0248   50.2118   11.8128 C.ar        1 DN3       0.0663
     15 C11        -4.9319   51.4635   12.4705 C.ar        1 DN3      -0.0321
     16 C6         -6.0911   52.2056   12.8062 C.ar        1 DN3      -0.0043
     17 C7         -7.3564   51.6755   12.4600 C.ar        1 DN3      -0.0672
     18 C8         -7.4635   50.4559   11.7712 C.ar        1 DN3      -0.0745
     19 C9         -6.3029   49.7192   11.4641 C.ar        1 DN3      -0.0410
     20 C2         -5.9857   53.4091   13.5186 C.2         1 DN3       0.1452
     21 N1         -6.5446   53.6870   14.7040 N.2         1 DN3      -0.1437
     22 N5         -6.1541   54.8452   14.9931 N.pl3       1 DN3      -0.1036
     23 N4         -5.4232   55.3201   14.1200 N.2         1 DN3      -0.0518
     24 N3         -5.2680   54.4982   13.1823 N.2         1 DN3      -0.1756
     25 H1         -0.2237   49.7294   10.2964 H           1 DN3       0.0611
     26 H2          1.4907   48.0722   10.4491 H           1 DN3       0.0611
     27 H3          1.1145   46.0184   11.6603 H           1 DN3       0.0594
     28 H4         -0.4723   44.4175   12.4609 H           1 DN3       0.0980
     29 H5         -2.1653   44.8104   12.6224 H           1 DN3       0.0980
     30 H6         -0.0411   45.4805   14.5819 H           1 DN3       0.2042
     31 H7         -1.7286   46.1483   16.1467 H           1 DN3       0.0778
     32 H8         -2.9344   46.0031   14.8488 H           1 DN3       0.0778
     33 H9         -1.6257   47.2052   14.7531 H           1 DN3       0.0778
     34 H10        -0.4606   43.1323   14.5342 H           1 DN3       0.0778
     35 H11        -2.1787   43.4702   14.8439 H           1 DN3       0.0778
     36 H12        -0.9354   43.8782   16.0506 H           1 DN3       0.0778
     37 H13        -2.8118   47.2381   12.5306 H           1 DN3       0.0609
     38 H14        -4.1697   48.4236   11.6777 H           1 DN3       0.2251
     39 H15        -4.0161   51.7939   12.7788 H           1 DN3       0.0504
     40 H16        -8.2139   52.1858   12.6938 H           1 DN3       0.0498
     41 H17        -8.3853   50.0910   11.5147 H           1 DN3       0.0579
     42 H18        -6.4038   48.8132   10.9980 H           1 DN3       0.0505
     43 H19        -6.2746   55.2251   15.8398 H           1 DN3       0.2946
@<TRIPOS>BOND
     1     1     2   2
     2     2     3   1
     3     2    13  am
     4     3     4  ar
     5     3    12  ar
     6     4     5  ar
     7     5     6  ar
     8     6     7  ar
     9     7     8   1
    10     7    12  ar
    11     8     9   1
    12     9    10   1
    13     9    11   1
    14    13    14   1
    15    14    15  ar
    16    14    19  ar
    17    15    16  ar
    18    16    17  ar
    19    16    20   1
    20    17    18  ar
    21    18    19  ar
    22    20    21   2
    23    20    24   1
    24    21    22   1
    25    22    23   1
    26    23    24   2
    27     4    25   1
    28     5    26   1
    29     6    27   1
    30     8    28   1
    31     8    29   1
    32     9    30   1
    33    10    31   1
    34    10    32   1
    35    10    33   1
    36    11    34   1
    37    11    35   1
    38    11    36   1
    39    12    37   1
    40    13    38   1
    41    15    39   1
    42    17    40   1
    43    18    41   1
    44    19    42   1
    45    22    43   1
@<TRIPOS>SUBSTRUCTURE
     1  DN3      2

