@<TRIPOS>MOLECULE
4de2_ligand_024
    43    45
SMALL
GAST_HUCK
****
This file was generated by PARSER (from files_GN.cpp)

@<TRIPOS>ATOM
      1 O14        -8.4001   53.1701    7.8570 O.2         1 DN3      -0.3730
      2 C13        -8.1851   53.8644    8.8663 C.2         1 DN3       0.2307
      3 C15        -8.6153   53.4116   10.1010 C.ar        1 DN3       0.0495
      4 C16        -9.9626   53.0071   10.2378 C.ar        1 DN3      -0.0484
      5 C17       -10.4734   52.6318   11.4883 C.ar        1 DN3      -0.0627
      6 C18        -9.6358   52.6277   12.6159 C.ar        1 DN3      -0.0510
      7 C19        -8.2779   53.0134   12.5219 C.ar        1 DN3       0.0068
      8 C21        -7.4567   52.9455   13.7649 C.3         1 DN3       0.0024
      9 N22        -6.1338   53.6489   13.8297 N.4         1 DN3       0.2429
     10 C23        -6.2361   55.1405   13.7873 C.3         1 DN3      -0.0419
     11 C24        -5.3213   53.2058   15.0100 C.3         1 DN3      -0.0419
     12 C20        -7.7747   53.3909   11.2543 C.ar        1 DN3      -0.0351
     13 N12        -7.5880   55.0557    8.7608 N.am        1 DN3      -0.2334
     14 C10        -7.1331   55.6466    7.6265 C.ar        1 DN3       0.0663
     15 C11        -7.9739   56.0442    6.5611 C.ar        1 DN3      -0.0321
     16 C6         -7.4630   56.7722    5.4549 C.ar        1 DN3      -0.0043
     17 C7         -6.0757   57.0164    5.3931 C.ar        1 DN3      -0.0672
     18 C8         -5.2300   56.6327    6.4452 C.ar        1 DN3      -0.0745
     19 C9         -5.7667   55.9900    7.5735 C.ar        1 DN3      -0.0410
     20 C2         -8.3227   57.3226    4.4794 C.2         1 DN3       0.1452
     21 N1         -8.1206   58.4473    3.7821 N.2         1 DN3      -0.1437
     22 N5         -9.1395   58.5851    3.0742 N.pl3       1 DN3      -0.1036
     23 N4         -9.9692   57.6954    3.2760 N.2         1 DN3      -0.0518
     24 N3         -9.5370   56.8836    4.1310 N.2         1 DN3      -0.1756
     25 H1        -10.5862   53.0305    9.4220 H           1 DN3       0.0611
     26 H2        -11.4575   52.3679   11.5778 H           1 DN3       0.0611
     27 H3        -10.0419   52.3349   13.5111 H           1 DN3       0.0594
     28 H4         -7.2793   51.8759   13.9318 H           1 DN3       0.0980
     29 H5         -8.0681   53.2947   14.6097 H           1 DN3       0.0980
     30 H6         -5.6150   53.3573   12.9976 H           1 DN3       0.2042
     31 H7         -5.2363   55.5760   13.6895 H           1 DN3       0.0778
     32 H8         -6.7094   55.5315   14.6948 H           1 DN3       0.0778
     33 H9         -6.8190   55.4786   12.9268 H           1 DN3       0.0778
     34 H10        -5.1300   52.1328   14.9553 H           1 DN3       0.0778
     35 H11        -5.8439   53.4177   15.9445 H           1 DN3       0.0778
     36 H12        -4.3552   53.7127   15.0230 H           1 DN3       0.0778
     37 H13        -6.7917   53.6408   11.1448 H           1 DN3       0.0609
     38 H14        -7.4397   55.5275    9.6089 H           1 DN3       0.2251
     39 H15        -8.9797   55.8599    6.6440 H           1 DN3       0.0504
     40 H16        -5.6690   57.5149    4.5880 H           1 DN3       0.0498
     41 H17        -4.2318   56.8426    6.4056 H           1 DN3       0.0579
     42 H18        -5.1507   55.7386    8.3491 H           1 DN3       0.0505
     43 H19        -9.3489   59.3770    2.6264 H           1 DN3       0.2946
@<TRIPOS>BOND
     1     1     2   2
     2     2     3   1
     3     2    13  am
     4     3     4  ar
     5     3    12  ar
     6     4     5  ar
     7     5     6  ar
     8     6     7  ar
     9     7     8   1
    10     7    12  ar
    11     8     9   1
    12     9    10   1
    13     9    11   1
    14    13    14   1
    15    14    15  ar
    16    14    19  ar
    17    15    16  ar
    18    16    17  ar
    19    16    20   1
    20    17    18  ar
    21    18    19  ar
    22    20    21   2
    23    20    24   1
    24    21    22   1
    25    22    23   1
    26    23    24   2
    27     4    25   1
    28     5    26   1
    29     6    27   1
    30     8    28   1
    31     8    29   1
    32     9    30   1
    33    10    31   1
    34    10    32   1
    35    10    33   1
    36    11    34   1
    37    11    35   1
    38    11    36   1
    39    12    37   1
    40    13    38   1
    41    15    39   1
    42    17    40   1
    43    18    41   1
    44    19    42   1
    45    22    43   1
@<TRIPOS>SUBSTRUCTURE
     1  DN3      2

