@<TRIPOS>MOLECULE
4de2_ligand_016
    43    45
SMALL
GAST_HUCK
****
This file was generated by PARSER (from files_GN.cpp)

@<TRIPOS>ATOM
      1 O14        -0.7541   50.5323    9.9353 O.2         1 DN3      -0.3730
      2 C13        -1.1385   50.3787   11.0886 C.2         1 DN3       0.2307
      3 C15        -1.7694   51.4503   11.7207 C.ar        1 DN3       0.0495
      4 C16        -1.3678   52.7747   11.4147 C.ar        1 DN3      -0.0484
      5 C17        -1.9701   53.8764   12.0393 C.ar        1 DN3      -0.0627
      6 C18        -3.0115   53.6820   12.9578 C.ar        1 DN3      -0.0510
      7 C19        -3.4489   52.3790   13.2848 C.ar        1 DN3       0.0068
      8 C21        -4.5746   52.2178   14.2532 C.3         1 DN3       0.0024
      9 N22        -5.8791   52.7357   13.7172 N.4         1 DN3       0.2429
     10 C23        -6.4628   51.8580   12.6617 C.3         1 DN3      -0.0419
     11 C24        -6.8737   53.0434   14.7883 C.3         1 DN3      -0.0419
     12 C20        -2.8028   51.2714   12.6794 C.ar        1 DN3      -0.0351
     13 N12        -0.9424   49.2362   11.7409 N.am        1 DN3      -0.2334
     14 C10        -0.1950   48.1378   11.4010 C.ar        1 DN3       0.0663
     15 C11         0.8318   48.1138   10.4205 C.ar        1 DN3      -0.0321
     16 C6          1.6450   46.9763   10.2455 C.ar        1 DN3      -0.0043
     17 C7          1.4249   45.8350   11.0416 C.ar        1 DN3      -0.0672
     18 C8          0.4021   45.8325   12.0047 C.ar        1 DN3      -0.0745
     19 C9         -0.3918   46.9778   12.1854 C.ar        1 DN3      -0.0410
     20 C2          2.6884   46.9707    9.3030 C.2         1 DN3       0.1452
     21 N1          2.5598   46.9863    7.9745 N.2         1 DN3      -0.1437
     22 N5          3.7365   46.8970    7.5344 N.pl3       1 DN3      -0.1036
     23 N4          4.5687   46.8406    8.4400 N.2         1 DN3      -0.0518
     24 N3          3.9984   46.8732    9.5603 N.2         1 DN3      -0.1756
     25 H1         -0.6075   52.9496   10.7491 H           1 DN3       0.0611
     26 H2         -1.6603   54.8226   11.8095 H           1 DN3       0.0611
     27 H3         -3.4419   54.5019   13.3976 H           1 DN3       0.0594
     28 H4         -4.2967   52.7647   15.1592 H           1 DN3       0.0980
     29 H5         -4.6886   51.1723   14.5547 H           1 DN3       0.0980
     30 H6         -5.6761   53.6326   13.2668 H           1 DN3       0.2042
     31 H7         -7.3654   52.3068   12.2426 H           1 DN3       0.0778
     32 H8         -6.7172   50.8738   13.0645 H           1 DN3       0.0778
     33 H9         -5.7564   51.7229   11.8415 H           1 DN3       0.0778
     34 H10        -6.4905   53.8262   15.4444 H           1 DN3       0.0778
     35 H11        -7.0953   52.1604   15.3920 H           1 DN3       0.0778
     36 H12        -7.8073   53.4139   14.3579 H           1 DN3       0.0778
     37 H13        -3.1221   50.3269   12.9120 H           1 DN3       0.0609
     38 H14        -1.3592   49.1897   12.6184 H           1 DN3       0.2251
     39 H15         1.0481   48.9470    9.8773 H           1 DN3       0.0504
     40 H16         2.0009   44.9997   10.9250 H           1 DN3       0.0498
     41 H17         0.2450   45.0046   12.5808 H           1 DN3       0.0579
     42 H18        -1.1140   46.9639   12.9133 H           1 DN3       0.0505
     43 H19         3.9537   46.7957    6.6309 H           1 DN3       0.2946
@<TRIPOS>BOND
     1     1     2   2
     2     2     3   1
     3     2    13  am
     4     3     4  ar
     5     3    12  ar
     6     4     5  ar
     7     5     6  ar
     8     6     7  ar
     9     7     8   1
    10     7    12  ar
    11     8     9   1
    12     9    10   1
    13     9    11   1
    14    13    14   1
    15    14    15  ar
    16    14    19  ar
    17    15    16  ar
    18    16    17  ar
    19    16    20   1
    20    17    18  ar
    21    18    19  ar
    22    20    21   2
    23    20    24   1
    24    21    22   1
    25    22    23   1
    26    23    24   2
    27     4    25   1
    28     5    26   1
    29     6    27   1
    30     8    28   1
    31     8    29   1
    32     9    30   1
    33    10    31   1
    34    10    32   1
    35    10    33   1
    36    11    34   1
    37    11    35   1
    38    11    36   1
    39    12    37   1
    40    13    38   1
    41    15    39   1
    42    17    40   1
    43    18    41   1
    44    19    42   1
    45    22    43   1
@<TRIPOS>SUBSTRUCTURE
     1  DN3      2

