@<TRIPOS>MOLECULE
4de2_ligand_006
    43    45
SMALL
GAST_HUCK
****
This file was generated by PARSER (from files_GN.cpp)

@<TRIPOS>ATOM
      1 O14        -2.2385   53.1960   13.3825 O.2         1 DN3      -0.3730
      2 C13        -3.0971   52.5562   12.7747 C.2         1 DN3       0.2307
      3 C15        -4.4252   52.5941   13.2231 C.ar        1 DN3       0.0495
      4 C16        -4.7818   53.2807   14.4154 C.ar        1 DN3      -0.0484
      5 C17        -6.1118   53.3539   14.8494 C.ar        1 DN3      -0.0627
      6 C18        -7.1309   52.7611   14.0934 C.ar        1 DN3      -0.0510
      7 C19        -6.8296   52.0715   12.8965 C.ar        1 DN3       0.0068
      8 C21        -7.9179   51.4843   12.0607 C.3         1 DN3       0.0024
      9 N22        -8.6047   52.4183   11.1047 N.4         1 DN3       0.2429
     10 C23        -9.6021   53.3242   11.7439 C.3         1 DN3      -0.0419
     11 C24        -7.6753   53.1466   10.1955 C.3         1 DN3      -0.0419
     12 C20        -5.4787   51.9914   12.4833 C.ar        1 DN3      -0.0351
     13 N12        -2.7224   51.8181   11.7316 N.am        1 DN3      -0.2334
     14 C10        -1.4790   51.7564   11.1817 C.ar        1 DN3       0.0663
     15 C11        -0.8718   52.8859   10.5798 C.ar        1 DN3      -0.0321
     16 C6          0.4183   52.8099   10.0030 C.ar        1 DN3      -0.0043
     17 C7          1.1084   51.5690   10.0473 C.ar        1 DN3      -0.0672
     18 C8          0.5027   50.4410   10.6228 C.ar        1 DN3      -0.0745
     19 C9         -0.7893   50.5307   11.1734 C.ar        1 DN3      -0.0410
     20 C2          0.9944   53.9297    9.3693 C.2         1 DN3       0.1452
     21 N1          2.2800   54.1156    9.0146 N.2         1 DN3      -0.1437
     22 N5          2.3132   55.2472    8.4686 N.pl3       1 DN3      -0.1036
     23 N4          1.2096   55.7906    8.4378 N.2         1 DN3      -0.0518
     24 N3          0.3590   55.0416    8.9793 N.2         1 DN3      -0.1756
     25 H1         -4.0683   53.7378   14.9882 H           1 DN3       0.0611
     26 H2         -6.3412   53.8524   15.7086 H           1 DN3       0.0611
     27 H3         -8.0972   52.8428   14.4128 H           1 DN3       0.0594
     28 H4         -8.6648   51.0290   12.7204 H           1 DN3       0.0980
     29 H5         -7.5140   50.6481   11.4809 H           1 DN3       0.0980
     30 H6         -9.1598   51.8058   10.4989 H           1 DN3       0.2042
     31 H7        -10.1599   53.8705   10.9776 H           1 DN3       0.0778
     32 H8         -9.1186   54.0496   12.4026 H           1 DN3       0.0778
     33 H9        -10.3288   52.7468   12.3238 H           1 DN3       0.0778
     34 H10        -6.9981   52.4445    9.7069 H           1 DN3       0.0778
     35 H11        -7.0844   53.8823   10.7438 H           1 DN3       0.0778
     36 H12        -8.2388   53.6620    9.4159 H           1 DN3       0.0778
     37 H13        -5.2742   51.5085   11.6045 H           1 DN3       0.0609
     38 H14        -3.3757   51.1874   11.3864 H           1 DN3       0.2251
     39 H15        -1.3826   53.7646   10.5550 H           1 DN3       0.0504
     40 H16         2.0462   51.4697    9.6448 H           1 DN3       0.0498
     41 H17         1.0014   49.5395   10.6425 H           1 DN3       0.0579
     42 H18        -1.2134   49.6927   11.5974 H           1 DN3       0.0505
     43 H19         3.0937   55.6353    8.1225 H           1 DN3       0.2946
@<TRIPOS>BOND
     1     1     2   2
     2     2     3   1
     3     2    13  am
     4     3     4  ar
     5     3    12  ar
     6     4     5  ar
     7     5     6  ar
     8     6     7  ar
     9     7     8   1
    10     7    12  ar
    11     8     9   1
    12     9    10   1
    13     9    11   1
    14    13    14   1
    15    14    15  ar
    16    14    19  ar
    17    15    16  ar
    18    16    17  ar
    19    16    20   1
    20    17    18  ar
    21    18    19  ar
    22    20    21   2
    23    20    24   1
    24    21    22   1
    25    22    23   1
    26    23    24   2
    27     4    25   1
    28     5    26   1
    29     6    27   1
    30     8    28   1
    31     8    29   1
    32     9    30   1
    33    10    31   1
    34    10    32   1
    35    10    33   1
    36    11    34   1
    37    11    35   1
    38    11    36   1
    39    12    37   1
    40    13    38   1
    41    15    39   1
    42    17    40   1
    43    18    41   1
    44    19    42   1
    45    22    43   1
@<TRIPOS>SUBSTRUCTURE
     1  DN3      2

