@<TRIPOS>MOLECULE
4de2_ligand_010
    43    45
SMALL
GAST_HUCK
****
This file was generated by PARSER (from files_GN.cpp)

@<TRIPOS>ATOM
      1 O14        -8.7687   55.6308   13.6281 O.2         1 DN3      -0.3730
      2 C13        -7.8601   55.6448   12.8026 C.2         1 DN3       0.2307
      3 C15        -6.7389   54.8510   13.0298 C.ar        1 DN3       0.0495
      4 C16        -6.1639   54.7661   14.3208 C.ar        1 DN3      -0.0484
      5 C17        -5.0217   53.9828   14.5489 C.ar        1 DN3      -0.0627
      6 C18        -4.4564   53.2378   13.5024 C.ar        1 DN3      -0.0510
      7 C19        -5.0345   53.2520   12.2164 C.ar        1 DN3       0.0068
      8 C21        -4.4916   52.3652   11.1453 C.3         1 DN3       0.0024
      9 N22        -4.5278   50.8956   11.4560 N.4         1 DN3       0.2429
     10 C23        -5.8932   50.3691   11.7583 C.3         1 DN3      -0.0419
     11 C24        -3.8656   50.0910   10.3862 C.3         1 DN3      -0.0419
     12 C20        -6.1553   54.0879   11.9859 C.ar        1 DN3      -0.0351
     13 N12        -7.9447   56.3429   11.6790 N.am        1 DN3      -0.2334
     14 C10        -8.8834   57.2195   11.1981 C.ar        1 DN3       0.0663
     15 C11        -9.9095   57.8332   11.9570 C.ar        1 DN3      -0.0321
     16 C6        -10.7668   58.8014   11.3800 C.ar        1 DN3      -0.0043
     17 C7        -10.5955   59.1497   10.0233 C.ar        1 DN3      -0.0672
     18 C8         -9.6062   58.5244    9.2494 C.ar        1 DN3      -0.0745
     19 C9         -8.7531   57.5750    9.8347 C.ar        1 DN3      -0.0410
     20 C2        -11.7480   59.4444   12.1567 C.2         1 DN3       0.1452
     21 N1        -12.0218   60.7524   12.1585 N.2         1 DN3      -0.1437
     22 N5        -12.9286   60.9010   13.0117 N.pl3       1 DN3      -0.1036
     23 N4        -13.2542   59.8354   13.5328 N.2         1 DN3      -0.0518
     24 N3        -12.5658   58.8948   13.0617 N.2         1 DN3      -0.1756
     25 H1         -6.5604   55.2887   15.1071 H           1 DN3       0.0611
     26 H2         -4.6131   53.9330   15.4851 H           1 DN3       0.0611
     27 H3         -3.6361   52.6544   13.6937 H           1 DN3       0.0594
     28 H4         -3.4540   52.6684   10.9762 H           1 DN3       0.0980
     29 H5         -5.0184   52.5372   10.2038 H           1 DN3       0.0980
     30 H6         -3.9732   50.7598   12.3023 H           1 DN3       0.2042
     31 H7         -5.8671   49.2879   11.9113 H           1 DN3       0.0778
     32 H8         -6.5825   50.5851   10.9396 H           1 DN3       0.0778
     33 H9         -6.2818   50.8198   12.6739 H           1 DN3       0.0778
     34 H10        -2.8476   50.4464   10.2056 H           1 DN3       0.0778
     35 H11        -4.4275   50.1523    9.4498 H           1 DN3       0.0778
     36 H12        -3.7965   49.0406   10.6805 H           1 DN3       0.0778
     37 H13        -6.5779   54.0994   11.0547 H           1 DN3       0.0609
     38 H14        -7.1799   56.2277   11.0929 H           1 DN3       0.2251
     39 H15       -10.0135   57.6197   12.9464 H           1 DN3       0.0504
     40 H16       -11.2065   59.8434    9.5779 H           1 DN3       0.0498
     41 H17        -9.5012   58.7683    8.2663 H           1 DN3       0.0579
     42 H18        -8.0255   57.1499    9.2551 H           1 DN3       0.0505
     43 H19       -13.2400   61.7362   13.2926 H           1 DN3       0.2946
@<TRIPOS>BOND
     1     1     2   2
     2     2     3   1
     3     2    13  am
     4     3     4  ar
     5     3    12  ar
     6     4     5  ar
     7     5     6  ar
     8     6     7  ar
     9     7     8   1
    10     7    12  ar
    11     8     9   1
    12     9    10   1
    13     9    11   1
    14    13    14   1
    15    14    15  ar
    16    14    19  ar
    17    15    16  ar
    18    16    17  ar
    19    16    20   1
    20    17    18  ar
    21    18    19  ar
    22    20    21   2
    23    20    24   1
    24    21    22   1
    25    22    23   1
    26    23    24   2
    27     4    25   1
    28     5    26   1
    29     6    27   1
    30     8    28   1
    31     8    29   1
    32     9    30   1
    33    10    31   1
    34    10    32   1
    35    10    33   1
    36    11    34   1
    37    11    35   1
    38    11    36   1
    39    12    37   1
    40    13    38   1
    41    15    39   1
    42    17    40   1
    43    18    41   1
    44    19    42   1
    45    22    43   1
@<TRIPOS>SUBSTRUCTURE
     1  DN3      2

