@<TRIPOS>MOLECULE
4de2_ligand_047
    43    45
SMALL
GAST_HUCK
****
This file was generated by PARSER (from files_GN.cpp)

@<TRIPOS>ATOM
      1 O14        -2.9316   51.9886    9.9701 O.2         1 DN3      -0.3730
      2 C13        -2.6666   52.4747   11.0644 C.2         1 DN3       0.2307
      3 C15        -3.5877   52.3854   12.0827 C.ar        1 DN3       0.0495
      4 C16        -3.2890   51.6115   13.2261 C.ar        1 DN3      -0.0484
      5 C17        -4.2389   51.4722   14.2518 C.ar        1 DN3      -0.0627
      6 C18        -5.4580   52.1633   14.1821 C.ar        1 DN3      -0.0510
      7 C19        -5.7525   52.9905   13.0745 C.ar        1 DN3       0.0068
      8 C21        -7.0200   53.7714   13.0166 C.3         1 DN3       0.0024
      9 N22        -6.8283   55.2581   12.8998 N.4         1 DN3       0.2429
     10 C23        -8.1211   55.9718   12.6829 C.3         1 DN3      -0.0419
     11 C24        -6.0555   55.8620   14.0268 C.3         1 DN3      -0.0419
     12 C20        -4.8220   53.0700   12.0113 C.ar        1 DN3      -0.0351
     13 N12        -1.5168   53.0795   11.3222 N.am        1 DN3      -0.2334
     14 C10        -0.5037   53.2371   10.4365 C.ar        1 DN3       0.0663
     15 C11         0.4810   52.2389   10.2775 C.ar        1 DN3      -0.0321
     16 C6          1.5941   52.4584    9.4304 C.ar        1 DN3      -0.0043
     17 C7          1.6867   53.6910    8.7388 C.ar        1 DN3      -0.0672
     18 C8          0.6840   54.6689    8.8688 C.ar        1 DN3      -0.0745
     19 C9         -0.4067   54.4431    9.7201 C.ar        1 DN3      -0.0410
     20 C2          2.5771   51.4574    9.2516 C.2         1 DN3       0.1452
     21 N1          2.3905   50.1324    9.2918 N.2         1 DN3      -0.1437
     22 N5          3.5083   49.6262    9.0148 N.pl3       1 DN3      -0.1036
     23 N4          4.3652   50.4803    8.8133 N.2         1 DN3      -0.0518
     24 N3          3.8694   51.6288    8.9425 N.2         1 DN3      -0.1756
     25 H1         -2.3952   51.1161   13.3033 H           1 DN3       0.0611
     26 H2         -4.0444   50.8560   15.0425 H           1 DN3       0.0611
     27 H3         -6.1259   52.0570   14.9478 H           1 DN3       0.0594
     28 H4         -7.6524   53.5610   13.8869 H           1 DN3       0.0980
     29 H5         -7.5643   53.4116   12.1370 H           1 DN3       0.0980
     30 H6         -6.2710   55.4192   12.0564 H           1 DN3       0.2042
     31 H7         -7.9408   57.0293   12.4806 H           1 DN3       0.0778
     32 H8         -8.7689   55.8874   13.5571 H           1 DN3       0.0778
     33 H9         -8.6447   55.5591   11.8189 H           1 DN3       0.0778
     34 H10        -5.0695   55.3995   14.0991 H           1 DN3       0.0778
     35 H11        -6.5746   55.7330   14.9795 H           1 DN3       0.0778
     36 H12        -5.8992   56.9290   13.8507 H           1 DN3       0.0778
     37 H13        -5.0277   53.6601   11.2014 H           1 DN3       0.0609
     38 H14        -1.4380   53.5358   12.1791 H           1 DN3       0.2251
     39 H15         0.3969   51.3612   10.7977 H           1 DN3       0.0504
     40 H16         2.4612   53.8771    8.0979 H           1 DN3       0.0498
     41 H17         0.7416   55.5416    8.3411 H           1 DN3       0.0579
     42 H18        -1.1392   55.1458    9.8110 H           1 DN3       0.0505
     43 H19         3.6545   48.7092    8.9071 H           1 DN3       0.2946
@<TRIPOS>BOND
     1     1     2   2
     2     2     3   1
     3     2    13  am
     4     3     4  ar
     5     3    12  ar
     6     4     5  ar
     7     5     6  ar
     8     6     7  ar
     9     7     8   1
    10     7    12  ar
    11     8     9   1
    12     9    10   1
    13     9    11   1
    14    13    14   1
    15    14    15  ar
    16    14    19  ar
    17    15    16  ar
    18    16    17  ar
    19    16    20   1
    20    17    18  ar
    21    18    19  ar
    22    20    21   2
    23    20    24   1
    24    21    22   1
    25    22    23   1
    26    23    24   2
    27     4    25   1
    28     5    26   1
    29     6    27   1
    30     8    28   1
    31     8    29   1
    32     9    30   1
    33    10    31   1
    34    10    32   1
    35    10    33   1
    36    11    34   1
    37    11    35   1
    38    11    36   1
    39    12    37   1
    40    13    38   1
    41    15    39   1
    42    17    40   1
    43    18    41   1
    44    19    42   1
    45    22    43   1
@<TRIPOS>SUBSTRUCTURE
     1  DN3      2

