@<TRIPOS>MOLECULE
4de2_ligand_040
    43    45
SMALL
GAST_HUCK
****
This file was generated by PARSER (from files_GN.cpp)

@<TRIPOS>ATOM
      1 O14       -14.6795   58.7110    4.4941 O.2         1 DN3      -0.3730
      2 C13       -14.6921   57.8686    5.3829 C.2         1 DN3       0.2307
      3 C15       -13.7679   56.8249    5.3129 C.ar        1 DN3       0.0495
      4 C16       -14.0781   55.5177    5.7562 C.ar        1 DN3      -0.0484
      5 C17       -13.1268   54.4846    5.6717 C.ar        1 DN3      -0.0627
      6 C18       -11.8463   54.7435    5.1497 C.ar        1 DN3      -0.0510
      7 C19       -11.5013   56.0380    4.7015 C.ar        1 DN3       0.0068
      8 C21       -10.1709   56.3423    4.1150 C.3         1 DN3       0.0024
      9 N22        -9.4020   57.3259    4.9543 N.4         1 DN3       0.2429
     10 C23        -8.7317   56.6891    6.1256 C.3         1 DN3      -0.0419
     11 C24        -8.4464   58.1415    4.1514 C.3         1 DN3      -0.0419
     12 C20       -12.4701   57.0629    4.7956 C.ar        1 DN3      -0.0351
     13 N12       -15.5752   57.9237    6.3737 N.am        1 DN3      -0.2334
     14 C10       -16.4999   58.8935    6.6765 C.ar        1 DN3       0.0663
     15 C11       -16.3770   60.2585    6.3230 C.ar        1 DN3      -0.0321
     16 C6        -17.3558   61.2016    6.7041 C.ar        1 DN3      -0.0043
     17 C7        -18.4667   60.7808    7.4617 C.ar        1 DN3      -0.0672
     18 C8        -18.5853   59.4337    7.8460 C.ar        1 DN3      -0.0745
     19 C9        -17.6050   58.5018    7.4655 C.ar        1 DN3      -0.0410
     20 C2        -17.2170   62.5501    6.3435 C.2         1 DN3       0.1452
     21 N1        -16.6230   63.5063    7.0567 N.2         1 DN3      -0.1437
     22 N5        -16.7291   64.5448    6.3525 N.pl3       1 DN3      -0.1036
     23 N4        -17.3213   64.3316    5.2936 N.2         1 DN3      -0.0518
     24 N3        -17.6515   63.1201    5.2164 N.2         1 DN3      -0.1756
     25 H1        -15.0019   55.2923    6.1263 H           1 DN3       0.0611
     26 H2        -13.3652   53.5422    5.9875 H           1 DN3       0.0611
     27 H3        -11.1683   53.9810    5.0894 H           1 DN3       0.0594
     28 H4        -10.3626   56.7453    3.1160 H           1 DN3       0.0980
     29 H5         -9.5830   55.4312    3.9696 H           1 DN3       0.0980
     30 H6        -10.0772   57.9903    5.3461 H           1 DN3       0.2042
     31 H7         -8.2931   57.4550    6.7710 H           1 DN3       0.0778
     32 H8         -7.9407   56.0063    5.8054 H           1 DN3       0.0778
     33 H9         -9.4524   56.1308    6.7265 H           1 DN3       0.0778
     34 H10        -8.9805   58.6935    3.3744 H           1 DN3       0.0778
     35 H11        -7.6894   57.5121    3.6762 H           1 DN3       0.0778
     36 H12        -7.9472   58.8825    4.7822 H           1 DN3       0.0778
     37 H13       -12.2154   58.0073    4.4924 H           1 DN3       0.0609
     38 H14       -15.5627   57.1657    6.9786 H           1 DN3       0.2251
     39 H15       -15.5569   60.5854    5.8085 H           1 DN3       0.0504
     40 H16       -19.1862   61.4478    7.7495 H           1 DN3       0.0498
     41 H17       -19.3850   59.1319    8.4052 H           1 DN3       0.0579
     42 H18       -17.7080   57.5257    7.7599 H           1 DN3       0.0505
     43 H19       -16.3927   65.3818    6.6006 H           1 DN3       0.2946
@<TRIPOS>BOND
     1     1     2   2
     2     2     3   1
     3     2    13  am
     4     3     4  ar
     5     3    12  ar
     6     4     5  ar
     7     5     6  ar
     8     6     7  ar
     9     7     8   1
    10     7    12  ar
    11     8     9   1
    12     9    10   1
    13     9    11   1
    14    13    14   1
    15    14    15  ar
    16    14    19  ar
    17    15    16  ar
    18    16    17  ar
    19    16    20   1
    20    17    18  ar
    21    18    19  ar
    22    20    21   2
    23    20    24   1
    24    21    22   1
    25    22    23   1
    26    23    24   2
    27     4    25   1
    28     5    26   1
    29     6    27   1
    30     8    28   1
    31     8    29   1
    32     9    30   1
    33    10    31   1
    34    10    32   1
    35    10    33   1
    36    11    34   1
    37    11    35   1
    38    11    36   1
    39    12    37   1
    40    13    38   1
    41    15    39   1
    42    17    40   1
    43    18    41   1
    44    19    42   1
    45    22    43   1
@<TRIPOS>SUBSTRUCTURE
     1  DN3      2

