@<TRIPOS>MOLECULE
4de2_ligand_029
    43    45
SMALL
GAST_HUCK
****
This file was generated by PARSER (from files_GN.cpp)

@<TRIPOS>ATOM
      1 O14        -1.7562   48.9110   12.4859 O.2         1 DN3      -0.3730
      2 C13        -1.5684   49.8541   11.7138 C.2         1 DN3       0.2307
      3 C15        -1.9767   51.1291   12.0954 C.ar        1 DN3       0.0495
      4 C16        -1.4465   52.2897   11.4783 C.ar        1 DN3      -0.0484
      5 C17        -1.8957   53.5724   11.8409 C.ar        1 DN3      -0.0627
      6 C18        -2.9074   53.7194   12.8042 C.ar        1 DN3      -0.0510
      7 C19        -3.4654   52.5877   13.4401 C.ar        1 DN3       0.0068
      8 C21        -4.5857   52.7452   14.4160 C.3         1 DN3       0.0024
      9 N22        -5.9085   53.0142   13.7619 N.4         1 DN3       0.2429
     10 C23        -6.3297   51.9513   12.7970 C.3         1 DN3      -0.0419
     11 C24        -6.9801   53.2810   14.7619 C.3         1 DN3      -0.0419
     12 C20        -2.9735   51.3069   13.0911 C.ar        1 DN3      -0.0351
     13 N12        -1.1365   49.6253   10.4772 N.am        1 DN3      -0.2334
     14 C10        -0.7579   48.4249    9.9279 C.ar        1 DN3       0.0663
     15 C11        -1.4057   47.9812    8.7528 C.ar        1 DN3      -0.0321
     16 C6         -1.0129   46.7863    8.1141 C.ar        1 DN3      -0.0043
     17 C7          0.0830   46.0548    8.6242 C.ar        1 DN3      -0.0672
     18 C8          0.7219   46.4737    9.8069 C.ar        1 DN3      -0.0745
     19 C9          0.3124   47.6586   10.4430 C.ar        1 DN3      -0.0410
     20 C2         -1.6742   46.3450    6.9689 C.2         1 DN3       0.1452
     21 N1         -2.8904   45.7801    6.9300 N.2         1 DN3      -0.1437
     22 N5         -3.0799   45.5267    5.7018 N.pl3       1 DN3      -0.1036
     23 N4         -2.1292   45.8939    4.9835 N.2         1 DN3      -0.0518
     24 N3         -1.2327   46.3968    5.7024 N.2         1 DN3      -0.1756
     25 H1         -0.7238   52.2100   10.7642 H           1 DN3       0.0611
     26 H2         -1.5074   54.4002   11.3881 H           1 DN3       0.0611
     27 H3         -3.2399   54.6615   13.0462 H           1 DN3       0.0594
     28 H4         -4.3232   53.5776   15.0751 H           1 DN3       0.0980
     29 H5         -4.6668   51.8614   15.0512 H           1 DN3       0.0980
     30 H6         -5.8078   53.8748   13.2189 H           1 DN3       0.2042
     31 H7         -7.3032   52.1827   12.3619 H           1 DN3       0.0778
     32 H8         -6.3817   50.9728   13.2788 H           1 DN3       0.0778
     33 H9         -5.6192   51.8911   11.9650 H           1 DN3       0.0778
     34 H10        -6.7095   54.1262   15.3935 H           1 DN3       0.0778
     35 H11        -7.1550   52.4054   15.3994 H           1 DN3       0.0778
     36 H12        -7.9209   53.5365   14.2617 H           1 DN3       0.0778
     37 H13        -3.3993   50.4807   13.5306 H           1 DN3       0.0609
     38 H14        -1.2141   50.3679    9.8568 H           1 DN3       0.2251
     39 H15        -2.1613   48.5445    8.3614 H           1 DN3       0.0504
     40 H16         0.3918   45.1866    8.1702 H           1 DN3       0.0498
     41 H17         1.5042   45.9242   10.1798 H           1 DN3       0.0579
     42 H18         0.8204   47.9590   11.2814 H           1 DN3       0.0505
     43 H19        -3.8585   45.1193    5.3691 H           1 DN3       0.2946
@<TRIPOS>BOND
     1     1     2   2
     2     2     3   1
     3     2    13  am
     4     3     4  ar
     5     3    12  ar
     6     4     5  ar
     7     5     6  ar
     8     6     7  ar
     9     7     8   1
    10     7    12  ar
    11     8     9   1
    12     9    10   1
    13     9    11   1
    14    13    14   1
    15    14    15  ar
    16    14    19  ar
    17    15    16  ar
    18    16    17  ar
    19    16    20   1
    20    17    18  ar
    21    18    19  ar
    22    20    21   2
    23    20    24   1
    24    21    22   1
    25    22    23   1
    26    23    24   2
    27     4    25   1
    28     5    26   1
    29     6    27   1
    30     8    28   1
    31     8    29   1
    32     9    30   1
    33    10    31   1
    34    10    32   1
    35    10    33   1
    36    11    34   1
    37    11    35   1
    38    11    36   1
    39    12    37   1
    40    13    38   1
    41    15    39   1
    42    17    40   1
    43    18    41   1
    44    19    42   1
    45    22    43   1
@<TRIPOS>SUBSTRUCTURE
     1  DN3      2

