@<TRIPOS>MOLECULE
4des_ligand_000
    29    31
SMALL
GAST_HUCK
****
This file was generated by PARSER (from files_GN.cpp)

@<TRIPOS>ATOM
      1 C2         22.2874   -1.4750   -1.7654 C.2         1 MOL       0.1434
      2 C3         23.4665   -2.1292   -1.8205 C.2         1 MOL       0.0085
      3 C4         24.0765   -2.5460   -0.6769 C.2         1 MOL       0.1012
      4 C5         23.4177   -2.4797    0.5543 C.ar        1 MOL       0.0778
      5 C6         23.8790   -3.0737    1.7587 C.ar        1 MOL       0.0936
      6 C7         23.0917   -3.0111    2.9241 C.ar        1 MOL      -0.0085
      7 C8         21.8494   -2.3587    2.9114 C.ar        1 MOL       0.0776
      8 C9         21.4006   -1.7290    1.7357 C.ar        1 MOL      -0.0032
      9 C10        22.1682   -1.7922    0.5651 C.ar        1 MOL       0.1294
     10 O1         21.6768   -1.1901   -0.5828 O.3         1 MOL      -0.2412
     11 O4         25.2122   -2.9929   -0.7669 O.2         1 MOL      -0.4247
     12 O5         25.0554   -3.7489    1.8419 O.3         1 MOL      -0.3325
     13 O7         21.0668   -2.3800    4.0196 O.3         1 MOL      -0.3350
     14 C2'        20.9540   -1.9621   -3.7425 C.ar        1 MOL      -0.0449
     15 C3'        20.3038   -1.5159   -4.9089 C.ar        1 MOL      -0.0570
     16 C4'        20.3523   -0.1524   -5.2688 C.ar        1 MOL      -0.0581
     17 C5'        21.0287    0.7647   -4.4452 C.ar        1 MOL      -0.0570
     18 C6'        21.6617    0.3269   -3.2679 C.ar        1 MOL      -0.0449
     19 C1'        21.6439   -1.0409   -2.9095 C.ar        1 MOL       0.0307
     20 H1         23.9024   -2.3071   -2.6998 H           1 MOL       0.0422
     21 H2         23.4131   -3.4753    3.7781 H           1 MOL       0.0403
     22 H3         20.4994   -1.2429    1.7308 H           1 MOL       0.0401
     23 H4         24.9995   -4.4796    1.1873 H           1 MOL       0.2503
     24 H5         20.2404   -2.8131    3.7211 H           1 MOL       0.2494
     25 H6         20.9105   -2.9504   -3.4992 H           1 MOL       0.0661
     26 H7         19.8025   -2.1790   -5.4989 H           1 MOL       0.0628
     27 H8         19.9029    0.1633   -6.1267 H           1 MOL       0.0648
     28 H9         21.0659    1.7528   -4.7092 H           1 MOL       0.0628
     29 H10        22.1594    1.0080   -2.6878 H           1 MOL       0.0661
@<TRIPOS>BOND
     1     1     2   2
     2     1    10   1
     3    19     1   1
     4     2     3   1
     5     3     4   1
     6     3    11   2
     7     4     5  ar
     8     9     4  ar
     9     5     6  ar
    10     5    12   1
    11     7     6  ar
    12     8     7  ar
    13     7    13   1
    14     9     8  ar
    15    10     9   1
    16    14    15  ar
    17    14    19  ar
    18    15    16  ar
    19    16    17  ar
    20    17    18  ar
    21    18    19  ar
    22     2    20   1
    23     6    21   1
    24     8    22   1
    25    12    23   1
    26    13    24   1
    27    14    25   1
    28    15    26   1
    29    16    27   1
    30    17    28   1
    31    18    29   1
@<TRIPOS>SUBSTRUCTURE
     1  MOL      1

