@<TRIPOS>MOLECULE
4des_ligand_025
    29    31
SMALL
GAST_HUCK
****
This file was generated by PARSER (from files_GN.cpp)

@<TRIPOS>ATOM
      1 C2         22.0128   -2.1202   -3.6460 C.2         1 MOL       0.1434
      2 C3         23.3089   -2.4370   -3.8495 C.2         1 MOL       0.0085
      3 C4         24.1629   -2.5998   -2.7991 C.2         1 MOL       0.1012
      4 C5         23.7354   -2.3752   -1.4856 C.ar        1 MOL       0.0778
      5 C6         24.5535   -2.5062   -0.3305 C.ar        1 MOL       0.0936
      6 C7         24.0299   -2.2492    0.9508 C.ar        1 MOL      -0.0085
      7 C8         22.6869   -1.8626    1.1029 C.ar        1 MOL       0.0776
      8 C9         21.8629   -1.7504   -0.0315 C.ar        1 MOL      -0.0032
      9 C10        22.3713   -2.0126   -1.3154 C.ar        1 MOL       0.1294
     10 O1         21.5178   -1.9236   -2.4004 O.3         1 MOL      -0.2412
     11 O4         25.2998   -2.9851   -3.0390 O.2         1 MOL      -0.4247
     12 O5         25.8649   -2.8508   -0.3879 O.3         1 MOL      -0.3325
     13 O7         22.1912   -1.5988    2.3358 O.3         1 MOL      -0.3350
     14 C2'        20.1170   -3.0682   -4.8305 C.ar        1 MOL      -0.0449
     15 C3'        19.2097   -3.0380   -5.9081 C.ar        1 MOL      -0.0570
     16 C4'        19.2657   -1.9961   -6.8491 C.ar        1 MOL      -0.0581
     17 C5'        20.2127   -0.9701   -6.6941 C.ar        1 MOL      -0.0570
     18 C6'        21.1454   -1.0093   -5.6378 C.ar        1 MOL      -0.0449
     19 C1'        21.1025   -2.0622   -4.6943 C.ar        1 MOL       0.0307
     20 H1         23.6381   -2.5844   -4.7737 H           1 MOL       0.0422
     21 H2         24.6173   -2.3420    1.7862 H           1 MOL       0.0403
     22 H3         20.8846   -1.4844    0.0794 H           1 MOL       0.0401
     23 H4         26.2591   -2.2945   -1.0901 H           1 MOL       0.2503
     24 H5         22.1542   -0.6197    2.3911 H           1 MOL       0.2494
     25 H6         20.0878   -3.8620   -4.1850 H           1 MOL       0.0661
     26 H7         18.5237   -3.7861   -6.0163 H           1 MOL       0.0628
     27 H8         18.5923   -1.9640   -7.6196 H           1 MOL       0.0648
     28 H9         20.2546   -0.2126   -7.3744 H           1 MOL       0.0628
     29 H10        21.8399   -0.2618   -5.5501 H           1 MOL       0.0661
@<TRIPOS>BOND
     1     1     2   2
     2     1    10   1
     3    19     1   1
     4     2     3   1
     5     3     4   1
     6     3    11   2
     7     4     5  ar
     8     9     4  ar
     9     5     6  ar
    10     5    12   1
    11     7     6  ar
    12     8     7  ar
    13     7    13   1
    14     9     8  ar
    15    10     9   1
    16    14    15  ar
    17    14    19  ar
    18    15    16  ar
    19    16    17  ar
    20    17    18  ar
    21    18    19  ar
    22     2    20   1
    23     6    21   1
    24     8    22   1
    25    12    23   1
    26    13    24   1
    27    14    25   1
    28    15    26   1
    29    16    27   1
    30    17    28   1
    31    18    29   1
@<TRIPOS>SUBSTRUCTURE
     1  MOL      1

