@<TRIPOS>MOLECULE
4des_ligand_007
    29    31
SMALL
GAST_HUCK
****
This file was generated by PARSER (from files_GN.cpp)

@<TRIPOS>ATOM
      1 C2         21.1273    0.0025   -1.7721 C.2         1 MOL       0.1434
      2 C3         20.1457   -0.2058   -2.6727 C.2         1 MOL       0.0085
      3 C4         18.9727    0.4747   -2.5677 C.2         1 MOL       0.1012
      4 C5         18.7539    1.3961   -1.5353 C.ar        1 MOL       0.0778
      5 C6         17.5494    2.1186   -1.3480 C.ar        1 MOL       0.0936
      6 C7         17.4185    3.0230   -0.2778 C.ar        1 MOL      -0.0085
      7 C8         18.4858    3.2202    0.6161 C.ar        1 MOL       0.0776
      8 C9         19.6811    2.4959    0.4497 C.ar        1 MOL      -0.0032
      9 C10        19.8228    1.5874   -0.6168 C.ar        1 MOL       0.1294
     10 O1         21.0082    0.8761   -0.7410 O.3         1 MOL      -0.2412
     11 O4         18.0885    0.2010   -3.3668 O.2         1 MOL      -0.4247
     12 O5         16.4930    1.9873   -2.1863 O.3         1 MOL      -0.3325
     13 O7         18.3716    4.1031    1.6402 O.3         1 MOL      -0.3350
     14 C2'        22.4628   -1.8615   -1.0009 C.ar        1 MOL      -0.0449
     15 C3'        23.6754   -2.5780   -1.0261 C.ar        1 MOL      -0.0570
     16 C4'        24.7215   -2.1619   -1.8693 C.ar        1 MOL      -0.0581
     17 C5'        24.5609   -1.0266   -2.6834 C.ar        1 MOL      -0.0570
     18 C6'        23.3510   -0.3092   -2.6653 C.ar        1 MOL      -0.0449
     19 C1'        22.2939   -0.7286   -1.8261 C.ar        1 MOL       0.0307
     20 H1         20.2512   -0.9042   -3.3794 H           1 MOL       0.0422
     21 H2         16.5435    3.5402   -0.1544 H           1 MOL       0.0403
     22 H3         20.4501    2.6346    1.1074 H           1 MOL       0.0401
     23 H4         15.9253    1.3064   -1.7699 H           1 MOL       0.2503
     24 H5         17.8572    4.8571    1.2787 H           1 MOL       0.2494
     25 H6         21.7079   -2.1714   -0.3799 H           1 MOL       0.0661
     26 H7         23.7969   -3.4002   -0.4297 H           1 MOL       0.0628
     27 H8         25.6003   -2.6829   -1.8894 H           1 MOL       0.0648
     28 H9         25.3317   -0.7113   -3.2761 H           1 MOL       0.0628
     29 H10        23.2564    0.5332   -3.2400 H           1 MOL       0.0661
@<TRIPOS>BOND
     1     1     2   2
     2     1    10   1
     3    19     1   1
     4     2     3   1
     5     3     4   1
     6     3    11   2
     7     4     5  ar
     8     9     4  ar
     9     5     6  ar
    10     5    12   1
    11     7     6  ar
    12     8     7  ar
    13     7    13   1
    14     9     8  ar
    15    10     9   1
    16    14    15  ar
    17    14    19  ar
    18    15    16  ar
    19    16    17  ar
    20    17    18  ar
    21    18    19  ar
    22     2    20   1
    23     6    21   1
    24     8    22   1
    25    12    23   1
    26    13    24   1
    27    14    25   1
    28    15    26   1
    29    16    27   1
    30    17    28   1
    31    18    29   1
@<TRIPOS>SUBSTRUCTURE
     1  MOL      1

