@<TRIPOS>MOLECULE
4des_ligand_008
    29    31
SMALL
GAST_HUCK
****
This file was generated by PARSER (from files_GN.cpp)

@<TRIPOS>ATOM
      1 C2         21.6664    0.5246   -3.9140 C.2         1 MOL       0.1434
      2 C3         21.8566   -0.8104   -3.8821 C.2         1 MOL       0.0085
      3 C4         21.7991   -1.4916   -2.6994 C.2         1 MOL       0.1012
      4 C5         21.5505   -0.8257   -1.4877 C.ar        1 MOL       0.0778
      5 C6         21.5311   -1.4387   -0.2049 C.ar        1 MOL       0.0936
      6 C7         21.2534   -0.6694    0.9452 C.ar        1 MOL      -0.0085
      7 C8         21.0195    0.7122    0.8413 C.ar        1 MOL       0.0776
      8 C9         21.0340    1.3311   -0.4231 C.ar        1 MOL      -0.0032
      9 C10        21.3172    0.5774   -1.5771 C.ar        1 MOL       0.1294
     10 O1         21.3840    1.2352   -2.7956 O.3         1 MOL      -0.2412
     11 O4         21.9200   -2.7068   -2.7344 O.2         1 MOL      -0.4247
     12 O5         21.7720   -2.7643   -0.0526 O.3         1 MOL      -0.3325
     13 O7         20.8042    1.4406    1.9617 O.3         1 MOL      -0.3350
     14 C2'        22.7788    2.3029   -5.1389 C.ar        1 MOL      -0.0449
     15 C3'        22.9865    3.0207   -6.3367 C.ar        1 MOL      -0.0570
     16 C4'        22.2210    2.7288   -7.4749 C.ar        1 MOL      -0.0581
     17 C5'        21.2421    1.7204   -7.4197 C.ar        1 MOL      -0.0570
     18 C6'        21.0536    0.9815   -6.2337 C.ar        1 MOL      -0.0449
     19 C1'        21.8228    1.2597   -5.0843 C.ar        1 MOL       0.0307
     20 H1         22.0992   -1.3063   -4.7160 H           1 MOL       0.0422
     21 H2         21.2391   -1.1160    1.8704 H           1 MOL       0.0403
     22 H3         20.8661    2.3332   -0.4932 H           1 MOL       0.0401
     23 H4         22.4655   -2.8304    0.6525 H           1 MOL       0.2503
     24 H5         21.6150    2.0009    2.0624 H           1 MOL       0.2494
     25 H6         23.3787    2.5036   -4.3279 H           1 MOL       0.0661
     26 H7         23.7214    3.7353   -6.3778 H           1 MOL       0.0628
     27 H8         22.3723    3.2421   -8.3456 H           1 MOL       0.0648
     28 H9         20.6590    1.5247   -8.2390 H           1 MOL       0.0628
     29 H10        20.3332    0.2504   -6.2085 H           1 MOL       0.0661
@<TRIPOS>BOND
     1     1     2   2
     2     1    10   1
     3    19     1   1
     4     2     3   1
     5     3     4   1
     6     3    11   2
     7     4     5  ar
     8     9     4  ar
     9     5     6  ar
    10     5    12   1
    11     7     6  ar
    12     8     7  ar
    13     7    13   1
    14     9     8  ar
    15    10     9   1
    16    14    15  ar
    17    14    19  ar
    18    15    16  ar
    19    16    17  ar
    20    17    18  ar
    21    18    19  ar
    22     2    20   1
    23     6    21   1
    24     8    22   1
    25    12    23   1
    26    13    24   1
    27    14    25   1
    28    15    26   1
    29    16    27   1
    30    17    28   1
    31    18    29   1
@<TRIPOS>SUBSTRUCTURE
     1  MOL      1

