@<TRIPOS>MOLECULE
4des_ligand_019
    29    31
SMALL
GAST_HUCK
****
This file was generated by PARSER (from files_GN.cpp)

@<TRIPOS>ATOM
      1 C2         21.9180    1.3597    3.4327 C.2         1 MOL       0.1434
      2 C3         22.0035    0.7131    2.2507 C.2         1 MOL       0.0085
      3 C4         21.0248    0.8476    1.3073 C.2         1 MOL       0.1012
      4 C5         19.9750    1.7627    1.4838 C.ar        1 MOL       0.0778
      5 C6         18.9939    2.0668    0.5080 C.ar        1 MOL       0.0936
      6 C7         17.9956    3.0233    0.7800 C.ar        1 MOL      -0.0085
      7 C8         17.9675    3.6949    2.0191 C.ar        1 MOL       0.0776
      8 C9         18.9392    3.4021    2.9914 C.ar        1 MOL      -0.0032
      9 C10        19.9344    2.4414    2.7351 C.ar        1 MOL       0.1294
     10 O1         20.8599    2.1610    3.7273 O.3         1 MOL      -0.2412
     11 O4         21.0891    0.1494    0.3076 O.2         1 MOL      -0.4247
     12 O5         18.9920    1.4610   -0.7058 O.3         1 MOL      -0.3325
     13 O7         17.0117    4.6214    2.2726 O.3         1 MOL      -0.3350
     14 C2'        22.4815    0.9785    5.7648 C.ar        1 MOL      -0.0449
     15 C3'        23.4426    0.8325    6.7859 C.ar        1 MOL      -0.0570
     16 C4'        24.8104    0.9530    6.4875 C.ar        1 MOL      -0.0581
     17 C5'        25.2196    1.2058    5.1660 C.ar        1 MOL      -0.0570
     18 C6'        24.2591    1.3365    4.1418 C.ar        1 MOL      -0.0449
     19 C1'        22.8780    1.2194    4.4277 C.ar        1 MOL       0.0307
     20 H1         22.7684    0.1009    2.0673 H           1 MOL       0.0422
     21 H2         17.2911    3.2395    0.0720 H           1 MOL       0.0403
     22 H3         18.9257    3.8892    3.8911 H           1 MOL       0.0401
     23 H4         19.1978    2.1749   -1.3528 H           1 MOL       0.2503
     24 H5         17.4468    5.4887    2.1152 H           1 MOL       0.2494
     25 H6         21.4946    0.8748    6.0088 H           1 MOL       0.0661
     26 H7         23.1454    0.6305    7.7437 H           1 MOL       0.0628
     27 H8         25.5086    0.8557    7.2318 H           1 MOL       0.0648
     28 H9         26.2171    1.2923    4.9497 H           1 MOL       0.0628
     29 H10        24.5827    1.5359    3.1913 H           1 MOL       0.0661
@<TRIPOS>BOND
     1     1     2   2
     2     1    10   1
     3    19     1   1
     4     2     3   1
     5     3     4   1
     6     3    11   2
     7     4     5  ar
     8     9     4  ar
     9     5     6  ar
    10     5    12   1
    11     7     6  ar
    12     8     7  ar
    13     7    13   1
    14     9     8  ar
    15    10     9   1
    16    14    15  ar
    17    14    19  ar
    18    15    16  ar
    19    16    17  ar
    20    17    18  ar
    21    18    19  ar
    22     2    20   1
    23     6    21   1
    24     8    22   1
    25    12    23   1
    26    13    24   1
    27    14    25   1
    28    15    26   1
    29    16    27   1
    30    17    28   1
    31    18    29   1
@<TRIPOS>SUBSTRUCTURE
     1  MOL      1

