@<TRIPOS>MOLECULE
4des_ligand_001
    29    31
SMALL
GAST_HUCK
****
This file was generated by PARSER (from files_GN.cpp)

@<TRIPOS>ATOM
      1 C2         20.5293    0.8855   -1.7040 C.2         1 MOL       0.1434
      2 C3         19.3170    1.4520   -1.8920 C.2         1 MOL       0.0085
      3 C4         18.6745    2.0571   -0.8593 C.2         1 MOL       0.1012
      4 C5         19.2746    2.1820    0.3985 C.ar        1 MOL       0.0778
      5 C6         18.7128    2.8642    1.5065 C.ar        1 MOL       0.0936
      6 C7         19.4119    2.9341    2.7256 C.ar        1 MOL      -0.0085
      7 C8         20.6768    2.3324    2.8579 C.ar        1 MOL       0.0776
      8 C9         21.2401    1.6392    1.7728 C.ar        1 MOL      -0.0032
      9 C10        20.5485    1.5731    0.5514 C.ar        1 MOL       0.1294
     10 O1         21.1389    0.8942   -0.4921 O.3         1 MOL      -0.2412
     11 O4         17.5506    2.4870   -1.0687 O.2         1 MOL      -0.4247
     12 O5         17.4940    3.4557    1.4586 O.3         1 MOL      -0.3325
     13 O7         21.3610    2.4540    4.0199 O.3         1 MOL      -0.3350
     14 C2'        21.6328   -1.0852   -2.5822 C.ar        1 MOL      -0.0449
     15 C3'        22.3268   -1.7367   -3.6179 C.ar        1 MOL      -0.0570
     16 C4'        22.6246   -1.0459   -4.8052 C.ar        1 MOL      -0.0581
     17 C5'        22.2150    0.2890   -4.9679 C.ar        1 MOL      -0.0570
     18 C6'        21.5015    0.9337   -3.9422 C.ar        1 MOL      -0.0449
     19 C1'        21.2104    0.2564   -2.7323 C.ar        1 MOL       0.0307
     20 H1         18.8725    1.4006   -2.7805 H           1 MOL       0.0422
     21 H2         19.0059    3.4337    3.5206 H           1 MOL       0.0403
     22 H3         22.1559    1.1895    1.8741 H           1 MOL       0.0401
     23 H4         17.6203    4.2913    0.9624 H           1 MOL       0.2503
     24 H5         22.2167    2.8590    3.7630 H           1 MOL       0.2494
     25 H6         21.4284   -1.6024   -1.7242 H           1 MOL       0.0661
     26 H7         22.6153   -2.7112   -3.5049 H           1 MOL       0.0628
     27 H8         23.1378   -1.5150   -5.5524 H           1 MOL       0.0648
     28 H9         22.4411    0.7951   -5.8268 H           1 MOL       0.0628
     29 H10        21.2232    1.9085   -4.0726 H           1 MOL       0.0661
@<TRIPOS>BOND
     1     1     2   2
     2     1    10   1
     3    19     1   1
     4     2     3   1
     5     3     4   1
     6     3    11   2
     7     4     5  ar
     8     9     4  ar
     9     5     6  ar
    10     5    12   1
    11     7     6  ar
    12     8     7  ar
    13     7    13   1
    14     9     8  ar
    15    10     9   1
    16    14    15  ar
    17    14    19  ar
    18    15    16  ar
    19    16    17  ar
    20    17    18  ar
    21    18    19  ar
    22     2    20   1
    23     6    21   1
    24     8    22   1
    25    12    23   1
    26    13    24   1
    27    14    25   1
    28    15    26   1
    29    16    27   1
    30    17    28   1
    31    18    29   1
@<TRIPOS>SUBSTRUCTURE
     1  MOL      1

