@<TRIPOS>MOLECULE
4des_ligand_020
    29    31
SMALL
GAST_HUCK
****
This file was generated by PARSER (from files_GN.cpp)

@<TRIPOS>ATOM
      1 C2         19.8866    1.2902   -4.4635 C.2         1 MOL       0.1434
      2 C3         19.1206    1.5873   -5.5344 C.2         1 MOL       0.0085
      3 C4         19.4740    1.1334   -6.7657 C.2         1 MOL       0.1012
      4 C5         20.5640    0.2681   -6.9319 C.ar        1 MOL       0.0778
      5 C6         20.9354   -0.3457   -8.1565 C.ar        1 MOL       0.0936
      6 C7         22.0470   -1.2099   -8.2049 C.ar        1 MOL      -0.0085
      7 C8         22.7888   -1.4853   -7.0432 C.ar        1 MOL       0.0776
      8 C9         22.4314   -0.8850   -5.8236 C.ar        1 MOL      -0.0032
      9 C10        21.3338   -0.0087   -5.7687 C.ar        1 MOL       0.1294
     10 O1         21.0401    0.5877   -4.5628 O.3         1 MOL      -0.2412
     11 O4         18.7760    1.4745   -7.7122 O.2         1 MOL      -0.4247
     12 O5         20.2498   -0.1416   -9.3104 O.3         1 MOL      -0.3325
     13 O7         23.8455   -2.3286   -7.1018 O.3         1 MOL      -0.3350
     14 C2'        18.3759    1.3203   -2.5692 C.ar        1 MOL      -0.0449
     15 C3'        18.0707    1.7780   -1.2759 C.ar        1 MOL      -0.0570
     16 C4'        18.9445    2.6643   -0.6196 C.ar        1 MOL      -0.0581
     17 C5'        20.1278    3.0903   -1.2499 C.ar        1 MOL      -0.0570
     18 C6'        20.4409    2.6253   -2.5386 C.ar        1 MOL      -0.0449
     19 C1'        19.5640    1.7437   -3.2066 C.ar        1 MOL       0.0307
     20 H1         18.3006    2.1466   -5.4257 H           1 MOL       0.0422
     21 H2         22.3165   -1.6467   -9.0886 H           1 MOL       0.0403
     22 H3         22.9724   -1.0804   -4.9776 H           1 MOL       0.0401
     23 H4         19.3053   -0.2561   -9.0756 H           1 MOL       0.2503
     24 H5         24.6293   -1.7589   -6.9637 H           1 MOL       0.2494
     25 H6         17.7421    0.6619   -3.0360 H           1 MOL       0.0661
     26 H7         17.2148    1.4641   -0.8136 H           1 MOL       0.0628
     27 H8         18.7148    3.0081    0.3153 H           1 MOL       0.0648
     28 H9         20.7524    3.7492   -0.7801 H           1 MOL       0.0628
     29 H10        21.2976    2.9543   -2.9976 H           1 MOL       0.0661
@<TRIPOS>BOND
     1     1     2   2
     2     1    10   1
     3    19     1   1
     4     2     3   1
     5     3     4   1
     6     3    11   2
     7     4     5  ar
     8     9     4  ar
     9     5     6  ar
    10     5    12   1
    11     7     6  ar
    12     8     7  ar
    13     7    13   1
    14     9     8  ar
    15    10     9   1
    16    14    15  ar
    17    14    19  ar
    18    15    16  ar
    19    16    17  ar
    20    17    18  ar
    21    18    19  ar
    22     2    20   1
    23     6    21   1
    24     8    22   1
    25    12    23   1
    26    13    24   1
    27    14    25   1
    28    15    26   1
    29    16    27   1
    30    17    28   1
    31    18    29   1
@<TRIPOS>SUBSTRUCTURE
     1  MOL      1

