@<TRIPOS>MOLECULE
4des_ligand_021
    29    31
SMALL
GAST_HUCK
****
This file was generated by PARSER (from files_GN.cpp)

@<TRIPOS>ATOM
      1 C2         26.5817   -3.2482    0.9060 C.2         1 MOL       0.1434
      2 C3         27.7853   -3.8671    0.8987 C.2         1 MOL       0.0085
      3 C4         28.1174   -4.7591    1.8806 C.2         1 MOL       0.1012
      4 C5         27.3018   -4.9264    3.0092 C.ar        1 MOL       0.0778
      5 C6         27.6249   -5.7207    4.1427 C.ar        1 MOL       0.0936
      6 C7         26.7614   -5.7514    5.2570 C.ar        1 MOL      -0.0085
      7 C8         25.5662   -5.0106    5.2576 C.ar        1 MOL       0.0776
      8 C9         25.2180   -4.2560    4.1228 C.ar        1 MOL      -0.0032
      9 C10        26.0711   -4.2176    3.0041 C.ar        1 MOL       0.1294
     10 O1         25.6796   -3.4854    1.8983 O.3         1 MOL      -0.2412
     11 O4         29.1435   -5.4084    1.7369 O.2         1 MOL      -0.4247
     12 O5         28.7549   -6.4665    4.2018 O.3         1 MOL      -0.3325
     13 O7         24.7440   -5.0382    6.3342 O.3         1 MOL      -0.3350
     14 C2'        24.8734   -2.5027   -0.6717 C.ar        1 MOL      -0.0449
     15 C3'        24.4425   -1.6420   -1.7015 C.ar        1 MOL      -0.0570
     16 C4'        25.2991   -0.6388   -2.1828 C.ar        1 MOL      -0.0581
     17 C5'        26.5857   -0.4952   -1.6369 C.ar        1 MOL      -0.0570
     18 C6'        27.0173   -1.3600   -0.6133 C.ar        1 MOL      -0.0449
     19 C1'        26.1723   -2.3856   -0.1160 C.ar        1 MOL       0.0307
     20 H1         28.4267   -3.7071    0.1523 H           1 MOL       0.0422
     21 H2         27.0044   -6.3126    6.0762 H           1 MOL       0.0403
     22 H3         24.3449   -3.7249    4.1110 H           1 MOL       0.0401
     23 H4         28.4668   -7.3629    3.9267 H           1 MOL       0.2503
     24 H5         25.0203   -4.2718    6.8783 H           1 MOL       0.2494
     25 H6         24.2323   -3.2319   -0.3493 H           1 MOL       0.0661
     26 H7         23.5048   -1.7461   -2.0970 H           1 MOL       0.0628
     27 H8         24.9842   -0.0113   -2.9252 H           1 MOL       0.0648
     28 H9         27.2068    0.2448   -1.9741 H           1 MOL       0.0628
     29 H10        27.9495   -1.2165   -0.2167 H           1 MOL       0.0661
@<TRIPOS>BOND
     1     1     2   2
     2     1    10   1
     3    19     1   1
     4     2     3   1
     5     3     4   1
     6     3    11   2
     7     4     5  ar
     8     9     4  ar
     9     5     6  ar
    10     5    12   1
    11     7     6  ar
    12     8     7  ar
    13     7    13   1
    14     9     8  ar
    15    10     9   1
    16    14    15  ar
    17    14    19  ar
    18    15    16  ar
    19    16    17  ar
    20    17    18  ar
    21    18    19  ar
    22     2    20   1
    23     6    21   1
    24     8    22   1
    25    12    23   1
    26    13    24   1
    27    14    25   1
    28    15    26   1
    29    16    27   1
    30    17    28   1
    31    18    29   1
@<TRIPOS>SUBSTRUCTURE
     1  MOL      1

