@<TRIPOS>MOLECULE
4des_ligand_003
    29    31
SMALL
GAST_HUCK
****
This file was generated by PARSER (from files_GN.cpp)

@<TRIPOS>ATOM
      1 C2         21.4349   -0.4240    0.8123 C.2         1 MOL       0.1434
      2 C3         22.2608   -0.3206    1.8770 C.2         1 MOL       0.0085
      3 C4         22.0967    0.6833    2.7828 C.2         1 MOL       0.1012
      4 C5         21.0266    1.5833    2.6813 C.ar        1 MOL       0.0778
      5 C6         20.7656    2.6302    3.6007 C.ar        1 MOL       0.0936
      6 C7         19.6166    3.4329    3.4491 C.ar        1 MOL      -0.0085
      7 C8         18.7453    3.2361    2.3587 C.ar        1 MOL       0.0776
      8 C9         19.0256    2.2333    1.4156 C.ar        1 MOL      -0.0032
      9 C10        20.1565    1.4067    1.5727 C.ar        1 MOL       0.1294
     10 O1         20.3908    0.4217    0.6368 O.3         1 MOL      -0.2412
     11 O4         22.9037    0.7460    3.7042 O.2         1 MOL      -0.4247
     12 O5         21.6119    2.9159    4.6241 O.3         1 MOL      -0.3325
     13 O7         17.6363    4.0124    2.2421 O.3         1 MOL      -0.3350
     14 C2'        21.7457   -0.9295   -1.5377 C.ar        1 MOL      -0.0449
     15 C3'        21.9805   -1.8486   -2.5778 C.ar        1 MOL      -0.0570
     16 C4'        22.0654   -3.2237   -2.2982 C.ar        1 MOL      -0.0581
     17 C5'        21.9264   -3.6754   -0.9735 C.ar        1 MOL      -0.0570
     18 C6'        21.7242   -2.7563    0.0742 C.ar        1 MOL      -0.0449
     19 C1'        21.6419   -1.3677   -0.1967 C.ar        1 MOL       0.0307
     20 H1         23.0136   -0.9657    1.9894 H           1 MOL       0.0422
     21 H2         19.4237    4.1759    4.1270 H           1 MOL       0.0403
     22 H3         18.3944    2.0886    0.6240 H           1 MOL       0.0401
     23 H4         22.4209    3.2372    4.1722 H           1 MOL       0.2503
     24 H5         17.6906    4.4643    1.3723 H           1 MOL       0.2494
     25 H6         21.6994    0.0668   -1.7684 H           1 MOL       0.0661
     26 H7         22.0675   -1.5139   -3.5391 H           1 MOL       0.0628
     27 H8         22.2155   -3.8889   -3.0547 H           1 MOL       0.0648
     28 H9         21.9753   -4.6753   -0.7750 H           1 MOL       0.0628
     29 H10        21.6202   -3.1108    1.0285 H           1 MOL       0.0661
@<TRIPOS>BOND
     1     1     2   2
     2     1    10   1
     3    19     1   1
     4     2     3   1
     5     3     4   1
     6     3    11   2
     7     4     5  ar
     8     9     4  ar
     9     5     6  ar
    10     5    12   1
    11     7     6  ar
    12     8     7  ar
    13     7    13   1
    14     9     8  ar
    15    10     9   1
    16    14    15  ar
    17    14    19  ar
    18    15    16  ar
    19    16    17  ar
    20    17    18  ar
    21    18    19  ar
    22     2    20   1
    23     6    21   1
    24     8    22   1
    25    12    23   1
    26    13    24   1
    27    14    25   1
    28    15    26   1
    29    16    27   1
    30    17    28   1
    31    18    29   1
@<TRIPOS>SUBSTRUCTURE
     1  MOL      1

