@<TRIPOS>MOLECULE
4dew_ligand_011
    31    33
SMALL
GAST_HUCK
****
This file was generated by PARSER (from files_GN.cpp)

@<TRIPOS>ATOM
      1 C1         21.4041   41.7130   43.5433 C.ar        1 LU2      -0.0033
      2 O1         20.3349   40.7535   41.6340 O.3         1 LU2      -0.3351
      3 C2         20.9026   41.8303   42.2350 C.ar        1 LU2       0.0775
      4 O2         21.7914   45.2758   41.4052 O.3         1 LU2      -0.3326
      5 C3         21.0343   43.0482   41.5418 C.ar        1 LU2      -0.0086
      6 O3         23.0008   46.1690   43.6459 O.2         1 LU2      -0.4275
      7 C4         21.6691   44.1491   42.1427 C.ar        1 LU2       0.0935
      8 O4         22.5080   42.6635   45.4563 O.3         1 LU2      -0.2433
      9 C5         22.1817   44.0421   43.4627 C.ar        1 LU2       0.0767
     10 O5         26.3802   44.2262   49.6669 O.3         1 LU2      -0.3356
     11 C6         22.0363   42.8116   44.1567 C.ar        1 LU2       0.1290
     12 O6         24.7560   42.7979   51.3517 O.3         1 LU2      -0.3321
     13 C7         22.8399   45.0654   44.1547 C.2         1 LU2       0.0969
     14 C8         23.3209   44.8777   45.4226 C.2         1 LU2       0.0024
     15 C9         23.1591   43.6948   46.0604 C.2         1 LU2       0.1329
     16 C10        23.5575   43.4846   47.3853 C.ar        1 LU2       0.0117
     17 C11        24.7820   43.9970   47.8909 C.ar        1 LU2      -0.0240
     18 C12        25.1838   43.7646   49.2149 C.ar        1 LU2       0.1223
     19 C13        24.3705   43.0049   50.0722 C.ar        1 LU2       0.1233
     20 C14        23.1464   42.4894   49.6021 C.ar        1 LU2      -0.0339
     21 C15        22.7496   42.7213   48.2719 C.ar        1 LU2      -0.0626
     22 H1         21.3034   40.8332   44.0485 H           1 LU2       0.0401
     23 H2         19.3606   40.8796   41.7104 H           1 LU2       0.2494
     24 H3         21.0616   45.8630   41.7330 H           1 LU2       0.2503
     25 H4         20.6812   43.1195   40.5825 H           1 LU2       0.0403
     26 H5         26.3010   45.2148   49.6655 H           1 LU2       0.2443
     27 H6         24.8521   41.8175   51.4577 H           1 LU2       0.2472
     28 H7         23.7322   45.6493   45.8888 H           1 LU2       0.0375
     29 H8         25.4195   44.5066   47.2777 H           1 LU2       0.0550
     30 H9         22.5387   41.9473   50.2285 H           1 LU2       0.0530
     31 H10        21.8460   42.3454   47.9562 H           1 LU2       0.0553
@<TRIPOS>BOND
     1     1     3  ar
     2    11     1  ar
     3     3     2   1
     4     3     5  ar
     5     7     4   1
     6     7     5  ar
     7    13     6   2
     8     9     7  ar
     9     8    11   1
    10    15     8   1
    11    11     9  ar
    12    13     9   1
    13    18    10   1
    14    19    12   1
    15    14    13   1
    16    15    14   2
    17    16    15   1
    18    17    16  ar
    19    16    21  ar
    20    18    17  ar
    21    19    18  ar
    22    19    20  ar
    23    20    21  ar
    24     1    22   1
    25     2    23   1
    26     4    24   1
    27     5    25   1
    28    10    26   1
    29    12    27   1
    30    14    28   1
    31    17    29   1
    32    20    30   1
    33    21    31   1
@<TRIPOS>SUBSTRUCTURE
     1  LU2      1

