@<TRIPOS>MOLECULE
4dew_ligand_013
    31    33
SMALL
GAST_HUCK
****
This file was generated by PARSER (from files_GN.cpp)

@<TRIPOS>ATOM
      1 C1         23.9811   43.0800   36.5015 C.ar        1 LU2      -0.0033
      2 O1         24.6359   43.4942   34.2425 O.3         1 LU2      -0.3351
      3 C2         24.5812   43.9030   35.5321 C.ar        1 LU2       0.0775
      4 O2         25.6982   46.7297   37.5662 O.3         1 LU2      -0.3326
      5 C3         25.1462   45.1331   35.9141 C.ar        1 LU2      -0.0086
      6 O3         24.9506   46.0381   40.0518 O.2         1 LU2      -0.4275
      7 C4         25.1184   45.5421   37.2617 C.ar        1 LU2       0.0935
      8 O4         23.3649   42.6329   38.7757 O.3         1 LU2      -0.2433
      9 C5         24.5213   44.7125   38.2486 C.ar        1 LU2       0.0767
     10 O5         20.7346   41.8591   44.0781 O.3         1 LU2      -0.3356
     11 C6         23.9433   43.4799   37.8493 C.ar        1 LU2       0.1290
     12 O6         20.9834   39.1617   43.4791 O.3         1 LU2      -0.3321
     13 C7         24.4665   45.0029   39.6148 C.2         1 LU2       0.0969
     14 C8         23.8915   44.1412   40.5041 C.2         1 LU2       0.0024
     15 C9         23.3462   42.9713   40.0951 C.2         1 LU2       0.1329
     16 C10        22.7685   42.0394   40.9771 C.ar        1 LU2       0.0117
     17 C11        22.0465   42.4270   42.1379 C.ar        1 LU2      -0.0240
     18 C12        21.4516   41.4725   42.9913 C.ar        1 LU2       0.1223
     19 C13        21.5779   40.1001   42.7020 C.ar        1 LU2       0.1233
     20 C14        22.2867   39.6929   41.5593 C.ar        1 LU2      -0.0339
     21 C15        22.8630   40.6502   40.7043 C.ar        1 LU2      -0.0626
     22 H1         23.5769   42.1832   36.2297 H           1 LU2       0.0401
     23 H2         24.3533   44.2708   33.7129 H           1 LU2       0.2494
     24 H3         25.0041   47.3984   37.3907 H           1 LU2       0.2503
     25 H4         25.5948   45.7230   35.2099 H           1 LU2       0.0403
     26 H5         20.4707   42.7884   43.9166 H           1 LU2       0.2443
     27 H6         20.0344   39.4061   43.4919 H           1 LU2       0.2472
     28 H7         23.9239   44.3620   41.4735 H           1 LU2       0.0375
     29 H8         21.9118   43.4195   42.3555 H           1 LU2       0.0550
     30 H9         22.3629   38.6994   41.3345 H           1 LU2       0.0530
     31 H10        23.3594   40.3137   39.8751 H           1 LU2       0.0553
@<TRIPOS>BOND
     1     1     3  ar
     2    11     1  ar
     3     3     2   1
     4     3     5  ar
     5     7     4   1
     6     7     5  ar
     7    13     6   2
     8     9     7  ar
     9     8    11   1
    10    15     8   1
    11    11     9  ar
    12    13     9   1
    13    18    10   1
    14    19    12   1
    15    14    13   1
    16    15    14   2
    17    16    15   1
    18    17    16  ar
    19    16    21  ar
    20    18    17  ar
    21    19    18  ar
    22    19    20  ar
    23    20    21  ar
    24     1    22   1
    25     2    23   1
    26     4    24   1
    27     5    25   1
    28    10    26   1
    29    12    27   1
    30    14    28   1
    31    17    29   1
    32    20    30   1
    33    21    31   1
@<TRIPOS>SUBSTRUCTURE
     1  LU2      1

