@<TRIPOS>MOLECULE
4dew_ligand_009
    31    33
SMALL
GAST_HUCK
****
This file was generated by PARSER (from files_GN.cpp)

@<TRIPOS>ATOM
      1 C1         18.4837   39.5553   38.9676 C.ar        1 LU2      -0.0033
      2 O1         16.9410   38.0558   37.8764 O.3         1 LU2      -0.3351
      3 C2         17.9550   38.9539   37.8106 C.ar        1 LU2       0.0775
      4 O2         19.8902   40.5665   35.1711 O.3         1 LU2      -0.3326
      5 C3         18.4590   39.3119   36.5498 C.ar        1 LU2      -0.0086
      6 O3         21.5399   42.2485   36.5501 O.2         1 LU2      -0.4275
      7 C4         19.4757   40.2770   36.4305 C.ar        1 LU2       0.0935
      8 O4         20.0166   41.0543   40.0303 O.3         1 LU2      -0.2433
      9 C5         20.0106   40.9003   37.5898 C.ar        1 LU2       0.0767
     10 O5         21.2105   45.6170   43.1351 O.3         1 LU2      -0.3356
     11 C6         19.5095   40.5134   38.8634 C.ar        1 LU2       0.1290
     12 O6         22.7972   44.0147   44.8006 O.3         1 LU2      -0.3321
     13 C7         21.0112   41.8824   37.5913 C.2         1 LU2       0.0969
     14 C8         21.4545   42.4418   38.7549 C.2         1 LU2       0.0024
     15 C9         20.9549   42.0293   39.9404 C.2         1 LU2       0.1329
     16 C10        21.4265   42.5409   41.1358 C.ar        1 LU2       0.0117
     17 C11        21.1277   43.8677   41.5252 C.ar        1 LU2      -0.0240
     18 C12        21.5715   44.3650   42.7651 C.ar        1 LU2       0.1223
     19 C13        22.3393   43.5456   43.6169 C.ar        1 LU2       0.1233
     20 C14        22.6370   42.2237   43.2376 C.ar        1 LU2      -0.0339
     21 C15        22.1822   41.7205   42.0049 C.ar        1 LU2      -0.0626
     22 H1         18.1220   39.2963   39.8870 H           1 LU2       0.0401
     23 H2         16.9257   37.7251   38.7991 H           1 LU2       0.2494
     24 H3         19.6799   41.5146   35.0452 H           1 LU2       0.2503
     25 H4         18.0672   38.8768   35.7117 H           1 LU2       0.0403
     26 H5         20.8806   45.5246   44.0553 H           1 LU2       0.2443
     27 H6         23.6301   44.4822   44.5743 H           1 LU2       0.2472
     28 H7         22.1842   43.1219   38.7333 H           1 LU2       0.0375
     29 H8         20.5558   44.4657   40.9246 H           1 LU2       0.0550
     30 H9         23.1749   41.6172   43.8598 H           1 LU2       0.0530
     31 H10        22.4148   40.7564   41.7434 H           1 LU2       0.0553
@<TRIPOS>BOND
     1     1     3  ar
     2    11     1  ar
     3     3     2   1
     4     3     5  ar
     5     7     4   1
     6     7     5  ar
     7    13     6   2
     8     9     7  ar
     9     8    11   1
    10    15     8   1
    11    11     9  ar
    12    13     9   1
    13    18    10   1
    14    19    12   1
    15    14    13   1
    16    15    14   2
    17    16    15   1
    18    17    16  ar
    19    16    21  ar
    20    18    17  ar
    21    19    18  ar
    22    19    20  ar
    23    20    21  ar
    24     1    22   1
    25     2    23   1
    26     4    24   1
    27     5    25   1
    28    10    26   1
    29    12    27   1
    30    14    28   1
    31    17    29   1
    32    20    30   1
    33    21    31   1
@<TRIPOS>SUBSTRUCTURE
     1  LU2      1

