@<TRIPOS>MOLECULE
4dew_ligand_008
    31    33
SMALL
GAST_HUCK
****
This file was generated by PARSER (from files_GN.cpp)

@<TRIPOS>ATOM
      1 C1         20.9034   43.9560   39.7434 C.ar        1 LU2      -0.0033
      2 O1         21.5273   45.7339   41.1989 O.3         1 LU2      -0.3351
      3 C2         21.1003   44.4537   41.0406 C.ar        1 LU2       0.0775
      4 O2         20.0989   41.6025   43.0877 O.3         1 LU2      -0.3326
      5 C3         20.8431   43.6229   42.1474 C.ar        1 LU2      -0.0086
      6 O3         19.4809   39.6859   41.2039 O.2         1 LU2      -0.4275
      7 C4         20.3525   42.3144   41.9606 C.ar        1 LU2       0.0935
      8 O4         20.1789   42.2261   38.2355 O.3         1 LU2      -0.2433
      9 C5         20.1212   41.8142   40.6481 C.ar        1 LU2       0.0767
     10 O5         17.1999   41.3762   33.9341 O.3         1 LU2      -0.3356
     11 C6         20.4069   42.6532   39.5377 C.ar        1 LU2       0.1290
     12 O6         18.7441   39.3891   32.7529 O.3         1 LU2      -0.3321
     13 C7         19.6243   40.5362   40.3423 C.2         1 LU2       0.0969
     14 C8         19.3908   40.1584   39.0467 C.2         1 LU2       0.0024
     15 C9         19.6862   40.9797   38.0206 C.2         1 LU2       0.1329
     16 C10        19.4844   40.5915   36.7005 C.ar        1 LU2       0.0117
     17 C11        18.4807   41.2135   35.9289 C.ar        1 LU2      -0.0240
     18 C12        18.2221   40.8008   34.6069 C.ar        1 LU2       0.1223
     19 C13        18.9954   39.7863   34.0208 C.ar        1 LU2       0.1233
     20 C14        20.0092   39.1612   34.7720 C.ar        1 LU2      -0.0339
     21 C15        20.2514   39.5631   36.1048 C.ar        1 LU2      -0.0626
     22 H1         21.1054   44.5523   38.9389 H           1 LU2       0.0401
     23 H2         20.8305   46.2007   41.7132 H           1 LU2       0.2494
     24 H3         19.3363   41.0146   42.8857 H           1 LU2       0.2503
     25 H4         21.0011   43.9841   43.0959 H           1 LU2       0.0403
     26 H5         16.5098   40.6714   33.8686 H           1 LU2       0.2443
     27 H6         18.2445   38.5433   32.8469 H           1 LU2       0.2472
     28 H7         18.9973   39.2548   38.8656 H           1 LU2       0.0375
     29 H8         17.8879   41.9507   36.3340 H           1 LU2       0.0550
     30 H9         20.5569   38.3975   34.3617 H           1 LU2       0.0530
     31 H10        20.9984   39.1010   36.6271 H           1 LU2       0.0553
@<TRIPOS>BOND
     1     1     3  ar
     2    11     1  ar
     3     3     2   1
     4     3     5  ar
     5     7     4   1
     6     7     5  ar
     7    13     6   2
     8     9     7  ar
     9     8    11   1
    10    15     8   1
    11    11     9  ar
    12    13     9   1
    13    18    10   1
    14    19    12   1
    15    14    13   1
    16    15    14   2
    17    16    15   1
    18    17    16  ar
    19    16    21  ar
    20    18    17  ar
    21    19    18  ar
    22    19    20  ar
    23    20    21  ar
    24     1    22   1
    25     2    23   1
    26     4    24   1
    27     5    25   1
    28    10    26   1
    29    12    27   1
    30    14    28   1
    31    17    29   1
    32    20    30   1
    33    21    31   1
@<TRIPOS>SUBSTRUCTURE
     1  LU2      1

