@<TRIPOS>MOLECULE
4dew_ligand_023
    31    33
SMALL
GAST_HUCK
****
This file was generated by PARSER (from files_GN.cpp)

@<TRIPOS>ATOM
      1 C1         20.3462   40.7756   38.3543 C.ar        1 LU2      -0.0033
      2 O1         19.6446   40.7140   36.0676 O.3         1 LU2      -0.3351
      3 C2         20.6230   40.5587   36.9953 C.ar        1 LU2       0.0775
      4 O2         24.1579   39.5956   37.1161 O.3         1 LU2      -0.3326
      5 C3         21.9127   40.1587   36.6125 C.ar        1 LU2      -0.0086
      6 O3         24.7491   39.7590   39.7575 O.2         1 LU2      -0.4275
      7 C4         22.9338   39.9763   37.5693 C.ar        1 LU2       0.0935
      8 O4         21.0145   40.8096   40.6600 O.3         1 LU2      -0.2433
      9 C5         22.6588   40.2077   38.9442 C.ar        1 LU2       0.0767
     10 O5         22.4511   43.3195   45.6116 O.3         1 LU2      -0.3356
     11 C6         21.3491   40.6082   39.3282 C.ar        1 LU2       0.1290
     12 O6         20.4619   41.7758   46.8836 O.3         1 LU2      -0.3321
     13 C7         23.5918   40.0837   39.9799 C.2         1 LU2       0.0969
     14 C8         23.2478   40.3434   41.2739 C.2         1 LU2       0.0024
     15 C9         21.9795   40.6699   41.6063 C.2         1 LU2       0.1329
     16 C10        21.6124   40.9492   42.9217 C.ar        1 LU2       0.0117
     17 C11        22.2234   41.9993   43.6443 C.ar        1 LU2      -0.0240
     18 C12        21.8310   42.3016   44.9635 C.ar        1 LU2       0.1223
     19 C13        20.8096   41.5502   45.5875 C.ar        1 LU2       0.1233
     20 C14        20.2057   40.4896   44.8874 C.ar        1 LU2      -0.0339
     21 C15        20.5830   40.2119   43.5559 C.ar        1 LU2      -0.0626
     22 H1         19.4085   41.0589   38.6363 H           1 LU2       0.0401
     23 H2         19.8075   41.6016   35.6813 H           1 LU2       0.2494
     24 H3         24.4314   38.8556   37.6982 H           1 LU2       0.2503
     25 H4         22.1024   40.0000   35.6226 H           1 LU2       0.0403
     26 H5         23.0882   42.8969   46.2273 H           1 LU2       0.2443
     27 H6         19.9501   42.6126   46.8756 H           1 LU2       0.2472
     28 H7         23.9398   40.2534   41.9827 H           1 LU2       0.0375
     29 H8         22.9384   42.5753   43.1981 H           1 LU2       0.0550
     30 H9         19.4862   39.9246   45.3524 H           1 LU2       0.0530
     31 H10        20.1275   39.4327   43.0736 H           1 LU2       0.0553
@<TRIPOS>BOND
     1     1     3  ar
     2    11     1  ar
     3     3     2   1
     4     3     5  ar
     5     7     4   1
     6     7     5  ar
     7    13     6   2
     8     9     7  ar
     9     8    11   1
    10    15     8   1
    11    11     9  ar
    12    13     9   1
    13    18    10   1
    14    19    12   1
    15    14    13   1
    16    15    14   2
    17    16    15   1
    18    17    16  ar
    19    16    21  ar
    20    18    17  ar
    21    19    18  ar
    22    19    20  ar
    23    20    21  ar
    24     1    22   1
    25     2    23   1
    26     4    24   1
    27     5    25   1
    28    10    26   1
    29    12    27   1
    30    14    28   1
    31    17    29   1
    32    20    30   1
    33    21    31   1
@<TRIPOS>SUBSTRUCTURE
     1  LU2      1

