@<TRIPOS>MOLECULE
4dew_ligand_006
    31    33
SMALL
GAST_HUCK
****
This file was generated by PARSER (from files_GN.cpp)

@<TRIPOS>ATOM
      1 C1         24.8491   44.8493   36.8652 C.ar        1 LU2      -0.0033
      2 O1         26.2580   45.6285   35.1080 O.3         1 LU2      -0.3351
      3 C2         25.1470   44.9633   35.4985 C.ar        1 LU2       0.0775
      4 O2         22.3197   43.1744   33.9945 O.3         1 LU2      -0.3326
      5 C3         24.2813   44.3957   34.5456 C.ar        1 LU2      -0.0086
      6 O3         21.0251   42.1562   36.1251 O.2         1 LU2      -0.4275
      7 C4         23.1322   43.6870   34.9511 C.ar        1 LU2       0.0935
      8 O4         23.4645   44.0482   38.6465 O.3         1 LU2      -0.2433
      9 C5         22.8558   43.5180   36.3321 C.ar        1 LU2       0.0767
     10 O5         20.9794   45.3270   43.1666 O.3         1 LU2      -0.3356
     11 C6         23.7141   44.1333   37.2859 C.ar        1 LU2       0.1290
     12 O6         21.7748   43.0267   44.6050 O.3         1 LU2      -0.3321
     13 C7         21.7922   42.7697   36.8590 C.2         1 LU2       0.0969
     14 C8         21.6141   42.6378   38.2093 C.2         1 LU2       0.0024
     15 C9         22.4355   43.2716   39.0742 C.2         1 LU2       0.1329
     16 C10        22.2494   43.1999   40.4441 C.ar        1 LU2       0.0117
     17 C11        21.7112   44.3013   41.1485 C.ar        1 LU2      -0.0240
     18 C12        21.5319   44.2451   42.5461 C.ar        1 LU2       0.1223
     19 C13        21.9282   43.0936   43.2616 C.ar        1 LU2       0.1233
     20 C14        22.4812   42.0027   42.5674 C.ar        1 LU2      -0.0339
     21 C15        22.6368   42.0511   41.1676 C.ar        1 LU2      -0.0626
     22 H1         25.4665   45.2778   37.5575 H           1 LU2       0.0401
     23 H2         26.8432   44.9396   34.7025 H           1 LU2       0.2494
     24 H3         22.2081   43.8785   33.3202 H           1 LU2       0.2503
     25 H4         24.4950   44.4986   33.5459 H           1 LU2       0.0403
     26 H5         20.8939   45.1032   44.1142 H           1 LU2       0.2443
     27 H6         22.6811   42.7925   44.9486 H           1 LU2       0.2472
     28 H7         20.8620   42.0806   38.5559 H           1 LU2       0.0375
     29 H8         21.4254   45.1460   40.6455 H           1 LU2       0.0550
     30 H9         22.7697   41.1689   43.0852 H           1 LU2       0.0530
     31 H10        23.0508   41.2442   40.6922 H           1 LU2       0.0553
@<TRIPOS>BOND
     1     1     3  ar
     2    11     1  ar
     3     3     2   1
     4     3     5  ar
     5     7     4   1
     6     7     5  ar
     7    13     6   2
     8     9     7  ar
     9     8    11   1
    10    15     8   1
    11    11     9  ar
    12    13     9   1
    13    18    10   1
    14    19    12   1
    15    14    13   1
    16    15    14   2
    17    16    15   1
    18    17    16  ar
    19    16    21  ar
    20    18    17  ar
    21    19    18  ar
    22    19    20  ar
    23    20    21  ar
    24     1    22   1
    25     2    23   1
    26     4    24   1
    27     5    25   1
    28    10    26   1
    29    12    27   1
    30    14    28   1
    31    17    29   1
    32    20    30   1
    33    21    31   1
@<TRIPOS>SUBSTRUCTURE
     1  LU2      1

