@<TRIPOS>MOLECULE
4dew_ligand_000
    31    33
SMALL
GAST_HUCK
****
This file was generated by PARSER (from files_GN.cpp)

@<TRIPOS>ATOM
      1 C1         20.7937   41.7130   36.4395 C.ar        1 LU2      -0.0033
      2 O1         20.8179   41.5038   34.0673 O.3         1 LU2      -0.3351
      3 C2         20.2822   41.1456   35.2611 C.ar        1 LU2       0.0775
      4 O2         17.6524   38.9574   36.5959 O.3         1 LU2      -0.3326
      5 C3         19.2212   40.2262   35.3335 C.ar        1 LU2      -0.0086
      6 O3         17.8122   39.3471   39.2591 O.2         1 LU2      -0.4275
      7 C4         18.6747   39.8567   36.5792 C.ar        1 LU2       0.0935
      8 O4         20.7835   41.9582   38.8241 O.3         1 LU2      -0.2433
      9 C5         19.1955   40.4135   37.7782 C.ar        1 LU2       0.0767
     10 O5         20.8016   45.3834   43.0138 O.3         1 LU2      -0.3356
     11 C6         20.2549   41.3559   37.6910 C.ar        1 LU2       0.1290
     12 O6         22.7932   44.0027   44.4280 O.3         1 LU2      -0.3321
     13 C7         18.7449   40.1188   39.0756 C.2         1 LU2       0.0969
     14 C8         19.3154   40.6947   40.1783 C.2         1 LU2       0.0024
     15 C9         20.3086   41.5985   40.0415 C.2         1 LU2       0.1329
     16 C10        20.9052   42.1974   41.1409 C.ar        1 LU2       0.0117
     17 C11        20.5511   43.5137   41.5390 C.ar        1 LU2      -0.0240
     18 C12        21.1748   44.1263   42.6473 C.ar        1 LU2       0.1223
     19 C13        22.1781   43.4339   43.3622 C.ar        1 LU2       0.1233
     20 C14        22.5360   42.1290   42.9700 C.ar        1 LU2      -0.0339
     21 C15        21.9099   41.5158   41.8710 C.ar        1 LU2      -0.0626
     22 H1         21.5620   42.3872   36.3875 H           1 LU2       0.0401
     23 H2         20.9080   40.6719   33.5573 H           1 LU2       0.2494
     24 H3         17.2126   39.0241   35.7218 H           1 LU2       0.2503
     25 H4         18.8471   39.8225   34.4721 H           1 LU2       0.0403
     26 H5         20.7707   45.3700   43.9971 H           1 LU2       0.2443
     27 H6         23.5003   44.5681   44.0479 H           1 LU2       0.2472
     28 H7         18.9910   40.4394   41.0833 H           1 LU2       0.0375
     29 H8         19.8360   44.0345   41.0295 H           1 LU2       0.0550
     30 H9         23.2658   41.6290   43.4798 H           1 LU2       0.0530
     31 H10        22.1920   40.5758   41.6033 H           1 LU2       0.0553
@<TRIPOS>BOND
     1     1     3  ar
     2    11     1  ar
     3     3     2   1
     4     3     5  ar
     5     7     4   1
     6     7     5  ar
     7    13     6   2
     8     9     7  ar
     9     8    11   1
    10    15     8   1
    11    11     9  ar
    12    13     9   1
    13    18    10   1
    14    19    12   1
    15    14    13   1
    16    15    14   2
    17    16    15   1
    18    17    16  ar
    19    16    21  ar
    20    18    17  ar
    21    19    18  ar
    22    19    20  ar
    23    20    21  ar
    24     1    22   1
    25     2    23   1
    26     4    24   1
    27     5    25   1
    28    10    26   1
    29    12    27   1
    30    14    28   1
    31    17    29   1
    32    20    30   1
    33    21    31   1
@<TRIPOS>SUBSTRUCTURE
     1  LU2      1

