@<TRIPOS>MOLECULE
4dew_ligand_016
    31    33
SMALL
GAST_HUCK
****
This file was generated by PARSER (from files_GN.cpp)

@<TRIPOS>ATOM
      1 C1         23.9800   39.9065   39.8350 C.ar        1 LU2      -0.0033
      2 O1         24.7922   38.1907   38.3670 O.3         1 LU2      -0.3351
      3 C2         23.8486   39.1122   38.6819 C.ar        1 LU2       0.0775
      4 O2         20.6485   40.3281   37.3271 O.3         1 LU2      -0.3326
      5 C3         22.7252   39.2724   37.8528 C.ar        1 LU2      -0.0086
      6 O3         19.9111   42.2196   39.0637 O.2         1 LU2      -0.4275
      7 C4         21.7287   40.2264   38.1551 C.ar        1 LU2       0.0935
      8 O4         23.1494   41.6018   41.3161 O.3         1 LU2      -0.2433
      9 C5         21.8597   41.0339   39.3157 C.ar        1 LU2       0.0767
     10 O5         23.1110   42.8565   46.2830 O.3         1 LU2      -0.3356
     11 C6         22.9987   40.8644   40.1532 C.ar        1 LU2       0.1290
     12 O6         23.3485   45.6652   46.0746 O.3         1 LU2      -0.3321
     13 C7         20.9296   42.0089   39.7041 C.2         1 LU2       0.0969
     14 C8         21.1394   42.7698   40.8128 C.2         1 LU2       0.0024
     15 C9         22.2376   42.5798   41.5766 C.2         1 LU2       0.1329
     16 C10        22.4810   43.3519   42.7008 C.ar        1 LU2       0.0117
     17 C11        22.6965   42.7291   43.9520 C.ar        1 LU2      -0.0240
     18 C12        22.9775   43.4978   45.0963 C.ar        1 LU2       0.1223
     19 C13        23.0539   44.9043   44.9928 C.ar        1 LU2       0.1233
     20 C14        22.7961   45.5323   43.7584 C.ar        1 LU2      -0.0339
     21 C15        22.5346   44.7628   42.6132 C.ar        1 LU2      -0.0626
     22 H1         24.7968   39.8046   40.4430 H           1 LU2       0.0401
     23 H2         25.0445   37.7941   39.2258 H           1 LU2       0.2494
     24 H3         20.6814   39.5532   36.7263 H           1 LU2       0.2503
     25 H4         22.6198   38.6633   37.0395 H           1 LU2       0.0403
     26 H5         23.6537   43.4405   46.8523 H           1 LU2       0.2443
     27 H6         24.2875   45.4609   46.2825 H           1 LU2       0.2472
     28 H7         20.4663   43.4605   41.0697 H           1 LU2       0.0375
     29 H8         22.6401   41.7107   44.0418 H           1 LU2       0.0550
     30 H9         22.8361   46.5498   43.6820 H           1 LU2       0.0530
     31 H10        22.3814   45.2422   41.7220 H           1 LU2       0.0553
@<TRIPOS>BOND
     1     1     3  ar
     2    11     1  ar
     3     3     2   1
     4     3     5  ar
     5     7     4   1
     6     7     5  ar
     7    13     6   2
     8     9     7  ar
     9     8    11   1
    10    15     8   1
    11    11     9  ar
    12    13     9   1
    13    18    10   1
    14    19    12   1
    15    14    13   1
    16    15    14   2
    17    16    15   1
    18    17    16  ar
    19    16    21  ar
    20    18    17  ar
    21    19    18  ar
    22    19    20  ar
    23    20    21  ar
    24     1    22   1
    25     2    23   1
    26     4    24   1
    27     5    25   1
    28    10    26   1
    29    12    27   1
    30    14    28   1
    31    17    29   1
    32    20    30   1
    33    21    31   1
@<TRIPOS>SUBSTRUCTURE
     1  LU2      1

