@<TRIPOS>MOLECULE
4dew_ligand_014
    31    33
SMALL
GAST_HUCK
****
This file was generated by PARSER (from files_GN.cpp)

@<TRIPOS>ATOM
      1 C1         24.8216   44.8513   39.3394 C.ar        1 LU2      -0.0033
      2 O1         26.3439   46.6110   38.8133 O.3         1 LU2      -0.3351
      3 C2         25.3893   45.7419   38.4199 C.ar        1 LU2       0.0775
      4 O2         23.6755   44.8044   35.3296 O.3         1 LU2      -0.3326
      5 C3         24.9682   45.7161   37.0786 C.ar        1 LU2      -0.0086
      6 O3         22.0053   42.7958   36.1191 O.2         1 LU2      -0.4275
      7 C4         24.0028   44.7868   36.6434 C.ar        1 LU2       0.0935
      8 O4         23.3320   43.0690   39.8691 O.3         1 LU2      -0.2433
      9 C5         23.4322   43.8728   37.5630 C.ar        1 LU2       0.0767
     10 O5         19.3692   41.2977   43.0552 O.3         1 LU2      -0.3356
     11 C6         23.8528   43.9269   38.9193 C.ar        1 LU2       0.1290
     12 O6         20.6146   38.8493   43.5382 O.3         1 LU2      -0.3321
     13 C7         22.4756   42.8954   37.2471 C.2         1 LU2       0.0969
     14 C8         22.0126   42.0276   38.1961 C.2         1 LU2       0.0024
     15 C9         22.4433   42.1345   39.4733 C.2         1 LU2       0.1329
     16 C10        21.9693   41.3081   40.4573 C.ar        1 LU2       0.0117
     17 C11        20.8812   41.7207   41.2563 C.ar        1 LU2      -0.0240
     18 C12        20.4054   40.8886   42.2866 C.ar        1 LU2       0.1223
     19 C13        21.0222   39.6444   42.5269 C.ar        1 LU2       0.1233
     20 C14        22.1019   39.2290   41.7210 C.ar        1 LU2      -0.0339
     21 C15        22.5824   40.0594   40.6942 C.ar        1 LU2      -0.0626
     22 H1         25.1123   44.8687   40.3177 H           1 LU2       0.0401
     23 H2         26.9878   46.0810   39.3423 H           1 LU2       0.2494
     24 H3         23.6955   43.8635   35.0387 H           1 LU2       0.2503
     25 H4         25.3829   46.3734   36.4088 H           1 LU2       0.0403
     26 H5         18.5942   41.3277   42.4431 H           1 LU2       0.2443
     27 H6         21.1716   39.1262   44.3042 H           1 LU2       0.2472
     28 H7         21.3526   41.3247   37.9442 H           1 LU2       0.0375
     29 H8         20.4465   42.6369   41.1113 H           1 LU2       0.0550
     30 H9         22.5532   38.3291   41.8969 H           1 LU2       0.0530
     31 H10        23.3840   39.7528   40.1348 H           1 LU2       0.0553
@<TRIPOS>BOND
     1     1     3  ar
     2    11     1  ar
     3     3     2   1
     4     3     5  ar
     5     7     4   1
     6     7     5  ar
     7    13     6   2
     8     9     7  ar
     9     8    11   1
    10    15     8   1
    11    11     9  ar
    12    13     9   1
    13    18    10   1
    14    19    12   1
    15    14    13   1
    16    15    14   2
    17    16    15   1
    18    17    16  ar
    19    16    21  ar
    20    18    17  ar
    21    19    18  ar
    22    19    20  ar
    23    20    21  ar
    24     1    22   1
    25     2    23   1
    26     4    24   1
    27     5    25   1
    28    10    26   1
    29    12    27   1
    30    14    28   1
    31    17    29   1
    32    20    30   1
    33    21    31   1
@<TRIPOS>SUBSTRUCTURE
     1  LU2      1

