@<TRIPOS>MOLECULE
4dew_ligand_022
    31    33
SMALL
GAST_HUCK
****
This file was generated by PARSER (from files_GN.cpp)

@<TRIPOS>ATOM
      1 C1         23.9438   44.2743   39.0660 C.ar        1 LU2      -0.0033
      2 O1         24.5959   44.3422   36.7560 O.3         1 LU2      -0.3351
      3 C2         23.6249   44.2796   37.6986 C.ar        1 LU2       0.0775
      4 O2         19.9690   44.1439   37.7951 O.3         1 LU2      -0.3326
      5 C3         22.2806   44.2334   37.2941 C.ar        1 LU2      -0.0086
      6 O3         19.4034   44.0850   40.4288 O.2         1 LU2      -0.4275
      7 C4         21.2457   44.1743   38.2477 C.ar        1 LU2       0.0935
      8 O4         23.2712   44.2429   41.3673 O.3         1 LU2      -0.2433
      9 C5         21.5527   44.1634   39.6320 C.ar        1 LU2       0.0767
     10 O5         23.7810   46.4553   46.2474 O.3         1 LU2      -0.3356
     11 C6         22.9178   44.2204   40.0297 C.ar        1 LU2       0.1290
     12 O6         24.0127   44.0174   47.5700 O.3         1 LU2      -0.3321
     13 C7         20.6017   44.1056   40.6636 C.2         1 LU2       0.0969
     14 C8         20.9802   44.0931   41.9714 C.2         1 LU2       0.0024
     15 C9         22.2888   44.1458   42.2964 C.2         1 LU2       0.1329
     16 C10        22.6820   44.1238   43.6155 C.ar        1 LU2       0.0117
     17 C11        23.0002   45.3288   44.2840 C.ar        1 LU2      -0.0240
     18 C12        23.4676   45.2979   45.6149 C.ar        1 LU2       0.1223
     19 C13        23.5878   44.0662   46.2874 C.ar        1 LU2       0.1233
     20 C14        23.2507   42.8698   45.6317 C.ar        1 LU2      -0.0339
     21 C15        22.7955   42.8947   44.2978 C.ar        1 LU2      -0.0626
     22 H1         24.9220   44.3177   39.3619 H           1 LU2       0.0401
     23 H2         24.9320   45.2635   36.8064 H           1 LU2       0.2494
     24 H3         19.9464   43.4001   37.1510 H           1 LU2       0.2503
     25 H4         22.0539   44.2525   36.2950 H           1 LU2       0.0403
     26 H5         24.0376   46.2025   47.1559 H           1 LU2       0.2443
     27 H6         23.2000   43.8427   48.0927 H           1 LU2       0.2472
     28 H7         20.2893   44.0478   42.6876 H           1 LU2       0.0375
     29 H8         22.8962   46.2268   43.8037 H           1 LU2       0.0550
     30 H9         23.3694   41.9789   46.1118 H           1 LU2       0.0530
     31 H10        22.5815   42.0111   43.8279 H           1 LU2       0.0553
@<TRIPOS>BOND
     1     1     3  ar
     2    11     1  ar
     3     3     2   1
     4     3     5  ar
     5     7     4   1
     6     7     5  ar
     7    13     6   2
     8     9     7  ar
     9     8    11   1
    10    15     8   1
    11    11     9  ar
    12    13     9   1
    13    18    10   1
    14    19    12   1
    15    14    13   1
    16    15    14   2
    17    16    15   1
    18    17    16  ar
    19    16    21  ar
    20    18    17  ar
    21    19    18  ar
    22    19    20  ar
    23    20    21  ar
    24     1    22   1
    25     2    23   1
    26     4    24   1
    27     5    25   1
    28    10    26   1
    29    12    27   1
    30    14    28   1
    31    17    29   1
    32    20    30   1
    33    21    31   1
@<TRIPOS>SUBSTRUCTURE
     1  LU2      1

