@<TRIPOS>MOLECULE
4djr_ligand_061
    76    79
SMALL
GAST_HUCK
****
This file was generated by PARSER (from files_GN.cpp)

@<TRIPOS>ATOM
      1 O28        17.0450   28.6317   13.6144 O.2         1 MOL      -0.3971
      2 C27        17.4520   29.7562   13.8681 C.2         1 MOL       0.1764
      3 N29        17.9215   30.0895   15.0421 N.am        1 MOL      -0.2812
      4 C24        18.4176   31.4158   15.1181 C.3         1 MOL       0.0716
      5 C25        18.1233   31.9873   13.7027 C.3         1 MOL      -0.0105
      6 C26        17.4923   30.8187   12.9115 C.3         1 MOL       0.0394
      7 C22        17.7934   32.2113   16.2976 C.3         1 MOL       0.1003
      8 O23        18.4867   33.4616   16.4463 O.3         1 MOL      -0.2616
      9 C21        18.3379   34.3567   17.4606 C.2         1 MOL       0.3200
     10 O22        17.4896   34.1191   18.4970 O.2         1 MOL      -0.3775
     11 N20        19.1716   35.4256   17.4691 N.am        1 MOL      -0.2550
     12 C19        19.2964   36.4011   18.5223 C.3         1 MOL       0.0807
     13 C32        20.6834   36.2307   19.2429 C.3         1 MOL       0.0064
     14 C38        20.8721   35.2251   20.3286 C.ar        1 MOL      -0.0408
     15 C37        19.8901   34.2898   20.7328 C.ar        1 MOL      -0.0603
     16 C36        20.1107   33.4313   21.8253 C.ar        1 MOL      -0.0686
     17 C35        21.3281   33.4822   22.5219 C.ar        1 MOL      -0.0687
     18 C34        22.3315   34.3789   22.1160 C.ar        1 MOL      -0.0686
     19 C33        22.1046   35.2362   21.0288 C.ar        1 MOL      -0.0603
     20 C17        19.1447   37.8641   17.9860 C.3         1 MOL       0.0967
     21 O18        19.0770   38.7424   19.1166 O.3         1 MOL      -0.3877
     22 C16        17.9647   38.1615   17.0131 C.3         1 MOL       0.0579
     23 N11        17.4697   39.5291   16.9973 N.am        1 MOL      -0.2317
     24 C12        16.0589   39.7997   16.7934 C.3         1 MOL       0.0322
     25 C13        15.3452   40.4997   18.0082 C.3         1 MOL      -0.0270
     26 C14        14.3018   41.5383   17.5023 C.3         1 MOL      -0.0610
     27 C15        14.6612   39.4982   18.9963 C.3         1 MOL      -0.0518
     28 C18        15.6285   38.6904   19.8918 C.3         1 MOL      -0.0650
     29 S8         18.5440   40.8241   16.7209 S.o2        1 MOL       0.0679
     30 O10        18.0608   42.1139   17.5151 O.2         1 MOL      -0.1506
     31 O9         18.4340   41.2162   15.1835 O.2         1 MOL      -0.1506
     32 C5         20.2337   40.6312   17.1149 C.ar        1 MOL       0.1007
     33 C6         21.1387   40.1425   16.1396 C.ar        1 MOL      -0.0433
     34 C7         22.4571   39.7867   16.4946 C.ar        1 MOL      -0.0517
     35 C4         20.6735   40.8229   18.4433 C.ar        1 MOL      -0.0206
     36 C3         21.9755   40.4250   18.7832 C.ar        1 MOL       0.0595
     37 S1         22.7760   40.3867   20.2996 S.3         1 MOL       0.0026
     38 C1         24.2227   39.7139   19.6578 C.2         1 MOL       0.0809
     39 N1         24.0777   39.5317   18.3268 N.2         1 MOL      -0.2931
     40 C2         22.8693   39.9083   17.8333 C.ar        1 MOL       0.0375
     41 H1         17.9911   29.4527   15.7751 H           1 MOL       0.1855
     42 H2         19.4994   31.3490   15.2737 H           1 MOL       0.0584
     43 H3         19.0477   32.3181   13.2184 H           1 MOL       0.0313
     44 H4         17.4312   32.8336   13.7360 H           1 MOL       0.0313
     45 H5         16.4784   31.0564   12.5789 H           1 MOL       0.0503
     46 H6         18.1077   30.5380   12.0514 H           1 MOL       0.0503
     47 H7         17.9137   31.6289   17.2177 H           1 MOL       0.0634
     48 H8         16.7215   32.3744   16.1334 H           1 MOL       0.0634
     49 H9         19.7695   35.5286   16.7110 H           1 MOL       0.1873
     50 H10        18.4990   36.2746   19.2580 H           1 MOL       0.0604
     51 H11        20.9360   37.1941   19.7045 H           1 MOL       0.0449
     52 H12        21.4485   36.0436   18.4793 H           1 MOL       0.0449
     53 H13        18.9930   34.2230   20.2351 H           1 MOL       0.0557
     54 H14        19.3813   32.7734   22.1102 H           1 MOL       0.0599
     55 H15        21.4789   32.8670   23.3235 H           1 MOL       0.0559
     56 H16        23.2155   34.4214   22.6224 H           1 MOL       0.0599
     57 H17        22.8442   35.8947   20.7596 H           1 MOL       0.0557
     58 H18        20.0620   38.0957   17.4429 H           1 MOL       0.0634
     59 H19        18.5040   38.3024   19.7790 H           1 MOL       0.2100
     60 H20        17.1641   37.4626   17.2605 H           1 MOL       0.0504
     61 H21        18.2763   37.9077   15.9987 H           1 MOL       0.0504
     62 H22        15.5121   38.8865   16.5369 H           1 MOL       0.0481
     63 H23        15.9682   40.4140   15.8924 H           1 MOL       0.0481
     64 H24        16.0862   41.0665   18.5806 H           1 MOL       0.0314
     65 H25        13.8405   42.0670   18.3380 H           1 MOL       0.0233
     66 H26        13.5177   41.0426   16.9261 H           1 MOL       0.0233
     67 H27        14.7835   42.2831   16.8656 H           1 MOL       0.0233
     68 H28        14.0360   38.8011   18.4318 H           1 MOL       0.0266
     69 H29        13.9998   40.0501   19.6698 H           1 MOL       0.0266
     70 H30        15.0623   38.1145   20.6259 H           1 MOL       0.0230
     71 H31        16.3028   39.3602   20.4264 H           1 MOL       0.0230
     72 H32        16.2124   37.9912   19.2994 H           1 MOL       0.0230
     73 H33        20.8348   39.9978   15.1737 H           1 MOL       0.0580
     74 H34        23.0937   39.4040   15.7921 H           1 MOL       0.0584
     75 H35        20.0411   41.1595   19.1734 H           1 MOL       0.0592
     76 H36        25.0534   39.4757   20.2002 H           1 MOL       0.1260
@<TRIPOS>BOND
     1     1     2   2
     2     2     3  am
     3     2     6   1
     4     3     4   1
     5     4     5   1
     6     4     7   1
     7     5     6   1
     8     7     8   1
     9     8     9   1
    10     9    10   2
    11     9    11  am
    12    11    12   1
    13    12    13   1
    14    12    20   1
    15    13    14   1
    16    14    15  ar
    17    14    19  ar
    18    15    16  ar
    19    16    17  ar
    20    17    18  ar
    21    18    19  ar
    22    20    21   1
    23    20    22   1
    24    22    23   1
    25    23    24   1
    26    23    29  am
    27    24    25   1
    28    25    26   1
    29    25    27   1
    30    27    28   1
    31    29    30   2
    32    29    31   2
    33    29    32   1
    34    32    33  ar
    35    32    35  ar
    36    33    34  ar
    37    34    40  ar
    38    35    36  ar
    39    36    37   1
    40    36    40  ar
    41    37    38   1
    42    38    39   2
    43    39    40   1
    44     3    41   1
    45     4    42   1
    46     5    43   1
    47     5    44   1
    48     6    45   1
    49     6    46   1
    50     7    47   1
    51     7    48   1
    52    11    49   1
    53    12    50   1
    54    13    51   1
    55    13    52   1
    56    15    53   1
    57    16    54   1
    58    17    55   1
    59    18    56   1
    60    19    57   1
    61    20    58   1
    62    21    59   1
    63    22    60   1
    64    22    61   1
    65    24    62   1
    66    24    63   1
    67    25    64   1
    68    26    65   1
    69    26    66   1
    70    26    67   1
    71    27    68   1
    72    27    69   1
    73    28    70   1
    74    28    71   1
    75    28    72   1
    76    33    73   1
    77    34    74   1
    78    35    75   1
    79    38    76   1
@<TRIPOS>SUBSTRUCTURE
     1  MOL      2

