@<TRIPOS>MOLECULE
4djr_ligand_096
    76    79
SMALL
GAST_HUCK
****
This file was generated by PARSER (from files_GN.cpp)

@<TRIPOS>ATOM
      1 O28        14.2071   40.8136   18.1025 O.2         1 MOL      -0.3971
      2 C27        15.0851   41.4541   18.6604 C.2         1 MOL       0.1764
      3 N29        16.3545   41.2636   18.4205 N.am        1 MOL      -0.2812
      4 C24        17.2284   42.0896   19.1679 C.3         1 MOL       0.0716
      5 C25        16.2519   43.0127   19.9493 C.3         1 MOL      -0.0105
      6 C26        14.8384   42.4753   19.6314 C.3         1 MOL       0.0394
      7 C22        18.1994   41.2692   20.0646 C.3         1 MOL       0.1003
      8 O23        18.7535   40.1166   19.4006 O.3         1 MOL      -0.2616
      9 C21        18.1430   38.9056   19.2940 C.2         1 MOL       0.3200
     10 O22        16.9130   38.7333   19.8386 O.2         1 MOL      -0.3775
     11 N20        18.7474   37.8965   18.6157 N.am        1 MOL      -0.2550
     12 C19        18.1278   36.6147   18.3639 C.3         1 MOL       0.0807
     13 C32        17.2803   36.6924   17.0433 C.3         1 MOL       0.0064
     14 C38        15.9508   36.0267   17.1666 C.ar        1 MOL      -0.0408
     15 C37        15.8460   34.6185   17.2730 C.ar        1 MOL      -0.0603
     16 C36        14.5976   33.9982   17.4689 C.ar        1 MOL      -0.0686
     17 C35        13.4321   34.7819   17.5639 C.ar        1 MOL      -0.0687
     18 C34        13.5168   36.1816   17.4552 C.ar        1 MOL      -0.0686
     19 C33        14.7678   36.7969   17.2597 C.ar        1 MOL      -0.0603
     20 C17        19.0974   35.3714   18.4418 C.3         1 MOL       0.0967
     21 O18        18.6397   34.4885   19.4753 O.3         1 MOL      -0.3877
     22 C16        20.6082   35.6486   18.7162 C.3         1 MOL       0.0579
     23 N11        21.4016   36.1636   17.6167 N.am        1 MOL      -0.2317
     24 C12        21.5805   35.4123   16.3828 C.3         1 MOL       0.0322
     25 C13        22.5649   34.1913   16.5148 C.3         1 MOL      -0.0270
     26 C14        21.8194   32.8399   16.7350 C.3         1 MOL      -0.0610
     27 C15        23.6302   34.0871   15.3752 C.3         1 MOL      -0.0518
     28 C18        23.0905   33.7111   13.9765 C.3         1 MOL      -0.0650
     29 S8         22.6471   37.2398   18.0445 S.o2        1 MOL       0.0679
     30 O10        23.7744   37.2691   16.9184 O.2         1 MOL      -0.1506
     31 O9         23.4482   36.6487   19.2836 O.2         1 MOL      -0.1506
     32 C5         22.1870   38.9013   18.2959 C.ar        1 MOL       0.1007
     33 C6         21.7865   39.6981   17.1996 C.ar        1 MOL      -0.0433
     34 C7         21.5043   41.0669   17.3711 C.ar        1 MOL      -0.0517
     35 C4         22.2807   39.4741   19.5847 C.ar        1 MOL      -0.0206
     36 C3         21.9973   40.8412   19.7312 C.ar        1 MOL       0.0595
     37 S1         22.0513   41.8505   21.1119 S.3         1 MOL       0.0026
     38 C1         21.6054   43.2719   20.2476 C.2         1 MOL       0.0809
     39 N1         21.4187   42.9548   18.9492 N.2         1 MOL      -0.2931
     40 C2         21.6225   41.6481   18.6440 C.ar        1 MOL       0.0375
     41 H1         16.6748   40.6102   17.7758 H           1 MOL       0.1855
     42 H2         17.8124   42.6824   18.4591 H           1 MOL       0.0584
     43 H3         16.3430   44.0478   19.6056 H           1 MOL       0.0313
     44 H4         16.4347   42.9946   21.0270 H           1 MOL       0.0313
     45 H5         14.3660   42.0432   20.5187 H           1 MOL       0.0503
     46 H6         14.1929   43.2538   19.2118 H           1 MOL       0.0503
     47 H7         17.7064   40.9543   20.9889 H           1 MOL       0.0634
     48 H8         19.0231   41.9246   20.3480 H           1 MOL       0.0634
     49 H9         19.5846   38.0950   18.1666 H           1 MOL       0.1873
     50 H10        17.4117   36.4620   19.1822 H           1 MOL       0.0604
     51 H11        17.8216   36.2563   16.2009 H           1 MOL       0.0449
     52 H12        17.1267   37.7411   16.7668 H           1 MOL       0.0449
     53 H13        16.6783   34.0296   17.2205 H           1 MOL       0.0557
     54 H14        14.5343   32.9811   17.5532 H           1 MOL       0.0599
     55 H15        12.5243   34.3335   17.7213 H           1 MOL       0.0559
     56 H16        12.6729   36.7516   17.5345 H           1 MOL       0.0599
     57 H17        14.8064   37.8174   17.2093 H           1 MOL       0.0557
     58 H18        19.0271   34.7793   17.5248 H           1 MOL       0.0634
     59 H19        19.2036   33.6876   19.4213 H           1 MOL       0.2100
     60 H20        21.0864   34.7236   19.0515 H           1 MOL       0.0504
     61 H21        20.6389   36.3208   19.5796 H           1 MOL       0.0504
     62 H22        21.9443   36.1039   15.6166 H           1 MOL       0.0481
     63 H23        20.6118   35.0766   15.9942 H           1 MOL       0.0481
     64 H24        23.1499   34.3481   17.4268 H           1 MOL       0.0314
     65 H25        22.5382   32.0245   16.8235 H           1 MOL       0.0233
     66 H26        21.1409   32.6235   15.9064 H           1 MOL       0.0233
     67 H27        21.2329   32.8652   17.6528 H           1 MOL       0.0233
     68 H28        24.3731   33.3401   15.6614 H           1 MOL       0.0266
     69 H29        24.1614   35.0382   15.2943 H           1 MOL       0.0266
     70 H30        23.9059   33.7403   13.2515 H           1 MOL       0.0230
     71 H31        22.3142   34.4090   13.6581 H           1 MOL       0.0230
     72 H32        22.6803   32.6989   13.9801 H           1 MOL       0.0230
     73 H33        21.7167   39.2880   16.2621 H           1 MOL       0.0580
     74 H34        21.2343   41.6405   16.5690 H           1 MOL       0.0584
     75 H35        22.5726   38.9297   20.3958 H           1 MOL       0.0592
     76 H36        21.4994   44.2008   20.6593 H           1 MOL       0.1260
@<TRIPOS>BOND
     1     1     2   2
     2     2     3  am
     3     2     6   1
     4     3     4   1
     5     4     5   1
     6     4     7   1
     7     5     6   1
     8     7     8   1
     9     8     9   1
    10     9    10   2
    11     9    11  am
    12    11    12   1
    13    12    13   1
    14    12    20   1
    15    13    14   1
    16    14    15  ar
    17    14    19  ar
    18    15    16  ar
    19    16    17  ar
    20    17    18  ar
    21    18    19  ar
    22    20    21   1
    23    20    22   1
    24    22    23   1
    25    23    24   1
    26    23    29  am
    27    24    25   1
    28    25    26   1
    29    25    27   1
    30    27    28   1
    31    29    30   2
    32    29    31   2
    33    29    32   1
    34    32    33  ar
    35    32    35  ar
    36    33    34  ar
    37    34    40  ar
    38    35    36  ar
    39    36    37   1
    40    36    40  ar
    41    37    38   1
    42    38    39   2
    43    39    40   1
    44     3    41   1
    45     4    42   1
    46     5    43   1
    47     5    44   1
    48     6    45   1
    49     6    46   1
    50     7    47   1
    51     7    48   1
    52    11    49   1
    53    12    50   1
    54    13    51   1
    55    13    52   1
    56    15    53   1
    57    16    54   1
    58    17    55   1
    59    18    56   1
    60    19    57   1
    61    20    58   1
    62    21    59   1
    63    22    60   1
    64    22    61   1
    65    24    62   1
    66    24    63   1
    67    25    64   1
    68    26    65   1
    69    26    66   1
    70    26    67   1
    71    27    68   1
    72    27    69   1
    73    28    70   1
    74    28    71   1
    75    28    72   1
    76    33    73   1
    77    34    74   1
    78    35    75   1
    79    38    76   1
@<TRIPOS>SUBSTRUCTURE
     1  MOL      2

