@<TRIPOS>MOLECULE
4djr_ligand_021
    76    79
SMALL
GAST_HUCK
****
This file was generated by PARSER (from files_GN.cpp)

@<TRIPOS>ATOM
      1 O28        13.9626   40.5796   20.1388 O.2         1 MOL      -0.3971
      2 C27        14.6064   39.6707   19.6341 C.2         1 MOL       0.1764
      3 N29        14.2746   39.1126   18.4975 N.am        1 MOL      -0.2812
      4 C24        15.1265   38.0645   18.0722 C.3         1 MOL       0.0716
      5 C25        16.2359   38.0674   19.1638 C.3         1 MOL      -0.0105
      6 C26        15.7612   39.0757   20.2323 C.3         1 MOL       0.0394
      7 C22        14.3723   36.7155   17.9270 C.3         1 MOL       0.1003
      8 O23        15.0646   35.8483   17.0230 O.3         1 MOL      -0.2616
      9 C21        15.9319   34.8418   17.3099 C.2         1 MOL       0.3200
     10 O22        16.2489   34.5230   18.5872 O.2         1 MOL      -0.3775
     11 N20        16.4858   34.2139   16.2510 N.am        1 MOL      -0.2550
     12 C19        17.6102   33.3220   16.2481 C.3         1 MOL       0.0807
     13 C32        17.1010   31.9233   15.7527 C.3         1 MOL       0.0064
     14 C38        18.0823   30.7980   15.7812 C.ar        1 MOL      -0.0408
     15 C37        18.9104   30.5951   16.9125 C.ar        1 MOL      -0.0603
     16 C36        19.8151   29.5215   16.9669 C.ar        1 MOL      -0.0686
     17 C35        19.8997   28.6186   15.8979 C.ar        1 MOL      -0.0687
     18 C34        19.0808   28.7922   14.7637 C.ar        1 MOL      -0.0686
     19 C33        18.1806   29.8786   14.7079 C.ar        1 MOL      -0.0603
     20 C17        18.7203   33.9935   15.3635 C.3         1 MOL       0.0967
     21 O18        19.5845   33.0659   14.7306 O.3         1 MOL      -0.3877
     22 C16        19.4923   35.1284   16.1190 C.3         1 MOL       0.0579
     23 N11        20.2647   34.7978   17.3185 N.am        1 MOL      -0.2317
     24 C12        21.3152   33.8021   17.3088 C.3         1 MOL       0.0322
     25 C13        22.7940   34.2223   17.0054 C.3         1 MOL      -0.0270
     26 C14        23.5445   32.9834   16.4247 C.3         1 MOL      -0.0610
     27 C15        23.0029   35.4452   16.0514 C.3         1 MOL      -0.0518
     28 C18        22.7644   36.8275   16.7005 C.3         1 MOL      -0.0650
     29 S8         19.9330   35.5874   18.7897 S.o2        1 MOL       0.0679
     30 O10        18.8610   34.7517   19.6057 O.2         1 MOL      -0.1506
     31 O9         19.2426   37.0034   18.5236 O.2         1 MOL      -0.1506
     32 C5         21.3034   35.9358   19.8167 C.ar        1 MOL       0.1007
     33 C6         21.7824   34.9689   20.7332 C.ar        1 MOL      -0.0433
     34 C7         22.9266   35.2194   21.5169 C.ar        1 MOL      -0.0517
     35 C4         21.9708   37.1814   19.7161 C.ar        1 MOL      -0.0206
     36 C3         23.1119   37.4088   20.5003 C.ar        1 MOL       0.0595
     37 S1         24.1606   38.7630   20.5871 S.3         1 MOL       0.0026
     38 C1         25.1740   38.0567   21.7806 C.2         1 MOL       0.0809
     39 N1         24.7133   36.8235   22.0836 N.2         1 MOL      -0.2931
     40 C2         23.5973   36.4504   21.3981 C.ar        1 MOL       0.0375
     41 H1         13.5083   39.4066   17.9750 H           1 MOL       0.1855
     42 H2         15.5482   38.3564   17.1034 H           1 MOL       0.0584
     43 H3         17.1796   38.4033   18.7298 H           1 MOL       0.0313
     44 H4         16.3928   37.0829   19.6101 H           1 MOL       0.0313
     45 H5         15.4804   38.5705   21.1613 H           1 MOL       0.0503
     46 H6         16.5256   39.8273   20.4388 H           1 MOL       0.0503
     47 H7         13.3780   36.8840   17.5116 H           1 MOL       0.0634
     48 H8         14.2467   36.2354   18.8978 H           1 MOL       0.0634
     49 H9         16.1242   34.4546   15.3819 H           1 MOL       0.1873
     50 H10        17.9889   33.1970   17.2609 H           1 MOL       0.0604
     51 H11        16.6836   32.0380   14.7457 H           1 MOL       0.0449
     52 H12        16.2685   31.6184   16.3985 H           1 MOL       0.0449
     53 H13        18.8592   31.2197   17.7086 H           1 MOL       0.0557
     54 H14        20.4010   29.3930   17.7959 H           1 MOL       0.0599
     55 H15        20.5404   27.8205   15.9474 H           1 MOL       0.0559
     56 H16        19.1340   28.1284   13.9861 H           1 MOL       0.0599
     57 H17        17.5836   29.9728   13.8818 H           1 MOL       0.0557
     58 H18        18.2298   34.4796   14.5190 H           1 MOL       0.0634
     59 H19        20.2297   33.6045   14.2374 H           1 MOL       0.2100
     60 H20        18.7523   35.8996   16.3513 H           1 MOL       0.0504
     61 H21        20.1682   35.5897   15.3990 H           1 MOL       0.0504
     62 H22        21.0504   33.0209   16.6125 H           1 MOL       0.0481
     63 H23        21.3235   33.2927   18.2707 H           1 MOL       0.0481
     64 H24        23.2838   34.4584   17.9575 H           1 MOL       0.0314
     65 H25        24.6064   33.1982   16.2796 H           1 MOL       0.0233
     66 H26        23.1253   32.6953   15.4527 H           1 MOL       0.0233
     67 H27        23.4569   32.1271   17.1027 H           1 MOL       0.0233
     68 H28        22.3656   35.3344   15.1737 H           1 MOL       0.0266
     69 H29        24.0373   35.4635   15.6892 H           1 MOL       0.0266
     70 H30        22.9106   37.6122   15.9586 H           1 MOL       0.0230
     71 H31        23.4720   36.9837   17.5194 H           1 MOL       0.0230
     72 H32        21.7533   36.9189   17.0910 H           1 MOL       0.0230
     73 H33        21.3046   34.0705   20.8318 H           1 MOL       0.0580
     74 H34        23.2734   34.5144   22.1680 H           1 MOL       0.0584
     75 H35        21.6605   37.9111   19.0646 H           1 MOL       0.0592
     76 H36        25.9952   38.4960   22.1881 H           1 MOL       0.1260
@<TRIPOS>BOND
     1     1     2   2
     2     2     3  am
     3     2     6   1
     4     3     4   1
     5     4     5   1
     6     4     7   1
     7     5     6   1
     8     7     8   1
     9     8     9   1
    10     9    10   2
    11     9    11  am
    12    11    12   1
    13    12    13   1
    14    12    20   1
    15    13    14   1
    16    14    15  ar
    17    14    19  ar
    18    15    16  ar
    19    16    17  ar
    20    17    18  ar
    21    18    19  ar
    22    20    21   1
    23    20    22   1
    24    22    23   1
    25    23    24   1
    26    23    29  am
    27    24    25   1
    28    25    26   1
    29    25    27   1
    30    27    28   1
    31    29    30   2
    32    29    31   2
    33    29    32   1
    34    32    33  ar
    35    32    35  ar
    36    33    34  ar
    37    34    40  ar
    38    35    36  ar
    39    36    37   1
    40    36    40  ar
    41    37    38   1
    42    38    39   2
    43    39    40   1
    44     3    41   1
    45     4    42   1
    46     5    43   1
    47     5    44   1
    48     6    45   1
    49     6    46   1
    50     7    47   1
    51     7    48   1
    52    11    49   1
    53    12    50   1
    54    13    51   1
    55    13    52   1
    56    15    53   1
    57    16    54   1
    58    17    55   1
    59    18    56   1
    60    19    57   1
    61    20    58   1
    62    21    59   1
    63    22    60   1
    64    22    61   1
    65    24    62   1
    66    24    63   1
    67    25    64   1
    68    26    65   1
    69    26    66   1
    70    26    67   1
    71    27    68   1
    72    27    69   1
    73    28    70   1
    74    28    71   1
    75    28    72   1
    76    33    73   1
    77    34    74   1
    78    35    75   1
    79    38    76   1
@<TRIPOS>SUBSTRUCTURE
     1  MOL      2

