@<TRIPOS>MOLECULE
4djr_ligand_056
    76    79
SMALL
GAST_HUCK
****
This file was generated by PARSER (from files_GN.cpp)

@<TRIPOS>ATOM
      1 O28        14.1349   41.5426   19.6921 O.2         1 MOL      -0.3971
      2 C27        14.7670   40.8578   18.8940 C.2         1 MOL       0.1764
      3 N29        14.5915   39.5684   18.7631 N.am        1 MOL      -0.2812
      4 C24        15.4644   38.9533   17.8399 C.3         1 MOL       0.0716
      5 C25        16.1683   40.1544   17.1665 C.3         1 MOL      -0.0105
      6 C26        15.8177   41.3684   18.0568 C.3         1 MOL       0.0394
      7 C22        16.4086   37.9568   18.5661 C.3         1 MOL       0.1003
      8 O23        17.0585   37.1379   17.5855 O.3         1 MOL      -0.2616
      9 C21        17.2481   35.7908   17.5796 C.2         1 MOL       0.3200
     10 O22        16.8541   35.0615   18.6580 O.2         1 MOL      -0.3775
     11 N20        17.9105   35.2460   16.5372 N.am        1 MOL      -0.2550
     12 C19        18.1665   33.8526   16.3105 C.3         1 MOL       0.0807
     13 C32        16.9205   33.2697   15.5523 C.3         1 MOL       0.0064
     14 C38        17.1177   31.9930   14.8079 C.ar        1 MOL      -0.0408
     15 C37        17.5320   32.0051   13.4516 C.ar        1 MOL      -0.0603
     16 C36        17.7508   30.8100   12.7372 C.ar        1 MOL      -0.0686
     17 C35        17.5541   29.5632   13.3665 C.ar        1 MOL      -0.0687
     18 C34        17.1366   29.5312   14.7143 C.ar        1 MOL      -0.0686
     19 C33        16.9193   30.7303   15.4224 C.ar        1 MOL      -0.0603
     20 C17        19.5547   33.6684   15.6073 C.3         1 MOL       0.0967
     21 O18        19.6862   32.3579   15.0893 O.3         1 MOL      -0.3877
     22 C16        20.7894   33.8821   16.5390 C.3         1 MOL       0.0579
     23 N11        21.0680   35.2423   16.9727 N.am        1 MOL      -0.2317
     24 C12        20.7070   35.6763   18.3033 C.3         1 MOL       0.0322
     25 C13        21.4761   34.9574   19.4670 C.3         1 MOL      -0.0270
     26 C14        22.8148   35.6627   19.8107 C.3         1 MOL      -0.0610
     27 C15        20.5603   34.8117   20.7268 C.3         1 MOL      -0.0518
     28 C18        21.1277   33.9251   21.8717 C.3         1 MOL      -0.0650
     29 S8         22.0844   36.1930   15.9931 S.o2        1 MOL       0.0679
     30 O10        21.6521   36.0118   14.4744 O.2         1 MOL      -0.1506
     31 O9         23.5722   35.6223   16.0816 O.2         1 MOL      -0.1506
     32 C5         22.0834   37.9180   16.2481 C.ar        1 MOL       0.1007
     33 C6         23.2582   38.5812   16.6777 C.ar        1 MOL      -0.0433
     34 C7         23.2850   39.9784   16.8517 C.ar        1 MOL      -0.0517
     35 C4         20.9111   38.6711   16.0018 C.ar        1 MOL      -0.0206
     36 C3         20.9558   40.0651   16.1702 C.ar        1 MOL       0.0595
     37 S1         19.7587   41.2625   15.9418 S.3         1 MOL       0.0026
     38 C1         20.7919   42.5634   16.4037 C.2         1 MOL       0.0809
     39 N1         22.0077   42.0752   16.7157 N.2         1 MOL      -0.2931
     40 C2         22.1220   40.7276   16.6010 C.ar        1 MOL       0.0375
     41 H1         13.9379   39.0724   19.2855 H           1 MOL       0.1855
     42 H2         14.8667   38.4032   17.1138 H           1 MOL       0.0584
     43 H3         15.7598   40.3065   16.1735 H           1 MOL       0.0313
     44 H4         17.2512   40.0236   17.0809 H           1 MOL       0.0313
     45 H5         16.6744   41.6821   18.6701 H           1 MOL       0.0503
     46 H6         15.4671   42.2103   17.4585 H           1 MOL       0.0503
     47 H7         15.8233   37.3644   19.2730 H           1 MOL       0.0634
     48 H8         17.1819   38.4894   19.1203 H           1 MOL       0.0634
     49 H9         18.2163   35.8731   15.8555 H           1 MOL       0.1873
     50 H10        18.2193   33.3327   17.2791 H           1 MOL       0.0604
     51 H11        16.4924   34.0299   14.8710 H           1 MOL       0.0449
     52 H12        16.1247   33.0687   16.3023 H           1 MOL       0.0449
     53 H13        17.6945   32.8848   12.9722 H           1 MOL       0.0557
     54 H14        18.0415   30.8381   11.7558 H           1 MOL       0.0599
     55 H15        17.6818   28.6993   12.8461 H           1 MOL       0.0559
     56 H16        16.9779   28.6232   15.1656 H           1 MOL       0.0599
     57 H17        16.6258   30.6728   16.4006 H           1 MOL       0.0557
     58 H18        19.6111   34.3435   14.7608 H           1 MOL       0.0634
     59 H19        19.6224   31.7367   15.8514 H           1 MOL       0.2100
     60 H20        21.6852   33.4911   16.0430 H           1 MOL       0.0504
     61 H21        20.6544   33.2395   17.4112 H           1 MOL       0.0504
     62 H22        19.6499   35.4860   18.4153 H           1 MOL       0.0481
     63 H23        20.8150   36.7545   18.4089 H           1 MOL       0.0481
     64 H24        21.7182   33.9426   19.1483 H           1 MOL       0.0314
     65 H25        23.4059   35.0589   20.5007 H           1 MOL       0.0233
     66 H26        22.6352   36.6382   20.2642 H           1 MOL       0.0233
     67 H27        23.4147   35.8050   18.9164 H           1 MOL       0.0233
     68 H28        19.6085   34.3510   20.4420 H           1 MOL       0.0266
     69 H29        20.3316   35.8091   21.1284 H           1 MOL       0.0266
     70 H30        20.3846   33.8283   22.6722 H           1 MOL       0.0230
     71 H31        22.0341   34.3638   22.3044 H           1 MOL       0.0230
     72 H32        21.3571   32.9322   21.4986 H           1 MOL       0.0230
     73 H33        24.1166   38.0443   16.8553 H           1 MOL       0.0580
     74 H34        24.1483   40.4403   17.1558 H           1 MOL       0.0584
     75 H35        20.0491   38.2281   15.6906 H           1 MOL       0.0592
     76 H36        20.5182   43.5491   16.4244 H           1 MOL       0.1260
@<TRIPOS>BOND
     1     1     2   2
     2     2     3  am
     3     2     6   1
     4     3     4   1
     5     4     5   1
     6     4     7   1
     7     5     6   1
     8     7     8   1
     9     8     9   1
    10     9    10   2
    11     9    11  am
    12    11    12   1
    13    12    13   1
    14    12    20   1
    15    13    14   1
    16    14    15  ar
    17    14    19  ar
    18    15    16  ar
    19    16    17  ar
    20    17    18  ar
    21    18    19  ar
    22    20    21   1
    23    20    22   1
    24    22    23   1
    25    23    24   1
    26    23    29  am
    27    24    25   1
    28    25    26   1
    29    25    27   1
    30    27    28   1
    31    29    30   2
    32    29    31   2
    33    29    32   1
    34    32    33  ar
    35    32    35  ar
    36    33    34  ar
    37    34    40  ar
    38    35    36  ar
    39    36    37   1
    40    36    40  ar
    41    37    38   1
    42    38    39   2
    43    39    40   1
    44     3    41   1
    45     4    42   1
    46     5    43   1
    47     5    44   1
    48     6    45   1
    49     6    46   1
    50     7    47   1
    51     7    48   1
    52    11    49   1
    53    12    50   1
    54    13    51   1
    55    13    52   1
    56    15    53   1
    57    16    54   1
    58    17    55   1
    59    18    56   1
    60    19    57   1
    61    20    58   1
    62    21    59   1
    63    22    60   1
    64    22    61   1
    65    24    62   1
    66    24    63   1
    67    25    64   1
    68    26    65   1
    69    26    66   1
    70    26    67   1
    71    27    68   1
    72    27    69   1
    73    28    70   1
    74    28    71   1
    75    28    72   1
    76    33    73   1
    77    34    74   1
    78    35    75   1
    79    38    76   1
@<TRIPOS>SUBSTRUCTURE
     1  MOL      2

