@<TRIPOS>MOLECULE
4djr_ligand_027
    76    79
SMALL
GAST_HUCK
****
This file was generated by PARSER (from files_GN.cpp)

@<TRIPOS>ATOM
      1 O28        15.9969   44.6266   16.6476 O.2         1 MOL      -0.3971
      2 C27        16.4839   43.5107   16.5196 C.2         1 MOL       0.1764
      3 N29        15.7944   42.4893   16.0849 N.am        1 MOL      -0.2812
      4 C24        16.5414   41.2970   15.9474 C.3         1 MOL       0.0716
      5 C25        17.9761   41.7181   16.3678 C.3         1 MOL      -0.0105
      6 C26        17.8538   43.1964   16.7959 C.3         1 MOL       0.0394
      7 C22        15.9412   40.1451   16.7941 C.3         1 MOL       0.1003
      8 O23        16.5077   38.9168   16.3373 O.3         1 MOL      -0.2616
      9 C21        16.2986   37.6625   16.8003 C.2         1 MOL       0.3200
     10 O22        15.4988   37.4375   17.8651 O.2         1 MOL      -0.3775
     11 N20        16.9465   36.6805   16.1441 N.am        1 MOL      -0.2550
     12 C19        17.0002   35.2849   16.4747 C.3         1 MOL       0.0807
     13 C32        16.1046   34.5299   15.4352 C.3         1 MOL       0.0064
     14 C38        16.4399   33.1016   15.1739 C.ar        1 MOL      -0.0408
     15 C37        16.1285   32.0975   16.1266 C.ar        1 MOL      -0.0603
     16 C36        16.4158   30.7422   15.8656 C.ar        1 MOL      -0.0686
     17 C35        16.9828   30.3664   14.6343 C.ar        1 MOL      -0.0687
     18 C34        17.2736   31.3442   13.6668 C.ar        1 MOL      -0.0686
     19 C33        17.0090   32.6989   13.9369 C.ar        1 MOL      -0.0603
     20 C17        18.5166   34.8654   16.5193 C.3         1 MOL       0.0967
     21 O18        18.9383   34.2892   15.2789 O.3         1 MOL      -0.3877
     22 C16        18.9049   33.8681   17.6587 C.3         1 MOL       0.0579
     23 N11        20.0845   34.3122   18.3895 N.am        1 MOL      -0.2317
     24 C12        19.9230   34.9055   19.7132 C.3         1 MOL       0.0322
     25 C13        20.8701   36.0610   20.1906 C.3         1 MOL      -0.0270
     26 C14        22.2189   35.5620   20.7877 C.3         1 MOL      -0.0610
     27 C15        20.9646   37.2089   19.1304 C.3         1 MOL      -0.0518
     28 C18        22.1867   38.1567   19.2365 C.3         1 MOL      -0.0650
     29 S8         21.6227   33.8572   17.8213 S.o2        1 MOL       0.0679
     30 O10        22.2138   32.7327   18.7773 O.2         1 MOL      -0.1506
     31 O9         22.6696   35.0562   17.8054 O.2         1 MOL      -0.1506
     32 C5         21.6994   33.2071   16.2037 C.ar        1 MOL       0.1007
     33 C6         22.3285   33.9450   15.1684 C.ar        1 MOL      -0.0433
     34 C7         22.3692   33.4486   13.8550 C.ar        1 MOL      -0.0517
     35 C4         21.1136   31.9513   15.9121 C.ar        1 MOL      -0.0206
     36 C3         21.1537   31.4821   14.5912 C.ar        1 MOL       0.0595
     37 S1         20.5402   30.0480   13.8747 S.3         1 MOL       0.0026
     38 C1         21.0755   30.4526   12.2913 C.2         1 MOL       0.0809
     39 N1         21.6990   31.6521   12.3272 N.2         1 MOL      -0.2931
     40 C2         21.7621   32.2144   13.5580 C.ar        1 MOL       0.0375
     41 H1         14.8676   42.5443   15.7978 H           1 MOL       0.1855
     42 H2         16.5214   41.0170   14.8858 H           1 MOL       0.0584
     43 H3         18.6613   41.6190   15.5211 H           1 MOL       0.0313
     44 H4         18.3610   41.1119   17.1933 H           1 MOL       0.0313
     45 H5         18.0606   43.3229   17.8603 H           1 MOL       0.0503
     46 H6         18.5197   43.8325   16.2077 H           1 MOL       0.0503
     47 H7         14.8577   40.1076   16.6660 H           1 MOL       0.0634
     48 H8         16.1671   40.2990   17.8541 H           1 MOL       0.0634
     49 H9         17.4798   36.9576   15.3889 H           1 MOL       0.1873
     50 H10        16.5594   35.1372   17.4644 H           1 MOL       0.0604
     51 H11        16.1149   35.0858   14.4878 H           1 MOL       0.0449
     52 H12        15.0663   34.5623   15.7954 H           1 MOL       0.0449
     53 H13        15.7150   32.3506   17.0271 H           1 MOL       0.0557
     54 H14        16.2006   30.0316   16.5605 H           1 MOL       0.0599
     55 H15        17.1737   29.3826   14.4377 H           1 MOL       0.0559
     56 H16        17.6667   31.0724   12.7639 H           1 MOL       0.0599
     57 H17        17.2260   33.3947   13.2199 H           1 MOL       0.0557
     58 H18        19.1184   35.7727   16.6626 H           1 MOL       0.0634
     59 H19        19.0314   35.0425   14.6595 H           1 MOL       0.2100
     60 H20        19.0571   32.8724   17.2376 H           1 MOL       0.0504
     61 H21        18.0628   33.7394   18.3453 H           1 MOL       0.0504
     62 H22        19.9476   34.0951   20.4474 H           1 MOL       0.0481
     63 H23        18.9105   35.3225   19.7878 H           1 MOL       0.0481
     64 H24        20.3524   36.5146   21.0455 H           1 MOL       0.0314
     65 H25        22.7064   36.3744   21.3378 H           1 MOL       0.0233
     66 H26        22.9031   35.2075   20.0110 H           1 MOL       0.0233
     67 H27        22.0368   34.7533   21.5012 H           1 MOL       0.0233
     68 H28        20.0643   37.8306   19.2156 H           1 MOL       0.0266
     69 H29        20.9701   36.7963   18.1160 H           1 MOL       0.0266
     70 H30        22.0522   39.0080   18.5631 H           1 MOL       0.0230
     71 H31        23.0988   37.6228   18.9433 H           1 MOL       0.0230
     72 H32        22.3056   38.5349   20.2541 H           1 MOL       0.0230
     73 H33        22.7438   34.8619   15.3528 H           1 MOL       0.0580
     74 H34        22.8349   33.9908   13.1279 H           1 MOL       0.0584
     75 H35        20.6514   31.4030   16.6415 H           1 MOL       0.0592
     76 H36        20.9417   29.8833   11.4542 H           1 MOL       0.1260
@<TRIPOS>BOND
     1     1     2   2
     2     2     3  am
     3     2     6   1
     4     3     4   1
     5     4     5   1
     6     4     7   1
     7     5     6   1
     8     7     8   1
     9     8     9   1
    10     9    10   2
    11     9    11  am
    12    11    12   1
    13    12    13   1
    14    12    20   1
    15    13    14   1
    16    14    15  ar
    17    14    19  ar
    18    15    16  ar
    19    16    17  ar
    20    17    18  ar
    21    18    19  ar
    22    20    21   1
    23    20    22   1
    24    22    23   1
    25    23    24   1
    26    23    29  am
    27    24    25   1
    28    25    26   1
    29    25    27   1
    30    27    28   1
    31    29    30   2
    32    29    31   2
    33    29    32   1
    34    32    33  ar
    35    32    35  ar
    36    33    34  ar
    37    34    40  ar
    38    35    36  ar
    39    36    37   1
    40    36    40  ar
    41    37    38   1
    42    38    39   2
    43    39    40   1
    44     3    41   1
    45     4    42   1
    46     5    43   1
    47     5    44   1
    48     6    45   1
    49     6    46   1
    50     7    47   1
    51     7    48   1
    52    11    49   1
    53    12    50   1
    54    13    51   1
    55    13    52   1
    56    15    53   1
    57    16    54   1
    58    17    55   1
    59    18    56   1
    60    19    57   1
    61    20    58   1
    62    21    59   1
    63    22    60   1
    64    22    61   1
    65    24    62   1
    66    24    63   1
    67    25    64   1
    68    26    65   1
    69    26    66   1
    70    26    67   1
    71    27    68   1
    72    27    69   1
    73    28    70   1
    74    28    71   1
    75    28    72   1
    76    33    73   1
    77    34    74   1
    78    35    75   1
    79    38    76   1
@<TRIPOS>SUBSTRUCTURE
     1  MOL      2

