@<TRIPOS>MOLECULE
4djr_ligand_089
    76    79
SMALL
GAST_HUCK
****
This file was generated by PARSER (from files_GN.cpp)

@<TRIPOS>ATOM
      1 O28        25.5154   38.9738   22.0201 O.2         1 MOL      -0.3971
      2 C27        25.2861   37.8140   21.7176 C.2         1 MOL       0.1764
      3 N29        24.1726   37.4375   21.1427 N.am        1 MOL      -0.2812
      4 C24        24.1474   36.0766   20.7460 C.3         1 MOL       0.0716
      5 C25        25.4229   35.5085   21.4292 C.3         1 MOL      -0.0105
      6 C26        26.2381   36.7526   21.8454 C.3         1 MOL       0.0394
      7 C22        22.7942   35.3751   21.0941 C.3         1 MOL       0.1003
      8 O23        22.1874   34.6927   19.9833 O.3         1 MOL      -0.2616
      9 C21        21.6572   35.2685   18.8676 C.2         1 MOL       0.3200
     10 O22        21.6972   36.6142   18.7186 O.2         1 MOL      -0.3775
     11 N20        21.0724   34.4735   17.9368 N.am        1 MOL      -0.2550
     12 C19        20.5326   34.9417   16.6850 C.3         1 MOL       0.0807
     13 C32        21.6852   35.4180   15.7330 C.3         1 MOL       0.0064
     14 C38        22.5840   34.3463   15.2137 C.ar        1 MOL      -0.0408
     15 C37        22.1488   33.4434   14.2138 C.ar        1 MOL      -0.0603
     16 C36        23.0041   32.4492   13.7027 C.ar        1 MOL      -0.0686
     17 C35        24.3334   32.3788   14.1542 C.ar        1 MOL      -0.0687
     18 C34        24.7877   33.2687   15.1411 C.ar        1 MOL      -0.0686
     19 C33        23.9214   34.2477   15.6639 C.ar        1 MOL      -0.0603
     20 C17        19.5755   33.8822   16.0405 C.3         1 MOL       0.0967
     21 O18        19.3791   34.2300   14.6685 O.3         1 MOL      -0.3877
     22 C16        18.1929   33.6849   16.7539 C.3         1 MOL       0.0579
     23 N11        17.0364   33.7385   15.8757 N.am        1 MOL      -0.2317
     24 C12        16.9046   32.7957   14.7732 C.3         1 MOL       0.0322
     25 C13        16.0104   31.5262   14.9511 C.3         1 MOL      -0.0270
     26 C14        16.7466   30.3256   15.6079 C.3         1 MOL      -0.0610
     27 C15        14.6027   31.7996   15.5676 C.3         1 MOL      -0.0518
     28 C18        14.5367   32.0004   17.1017 C.3         1 MOL      -0.0650
     29 S8         16.1615   35.1990   15.7821 S.o2        1 MOL       0.0679
     30 O10        14.6058   34.9076   15.7076 O.2         1 MOL      -0.1506
     31 O9         16.5133   35.9446   14.4233 O.2         1 MOL      -0.1506
     32 C5         16.3404   36.3148   17.1137 C.ar        1 MOL       0.1007
     33 C6         15.5035   36.2004   18.2501 C.ar        1 MOL      -0.0433
     34 C7         15.6306   37.0952   19.3320 C.ar        1 MOL      -0.0517
     35 C4         17.3187   37.3337   17.0648 C.ar        1 MOL      -0.0206
     36 C3         17.4300   38.2100   18.1541 C.ar        1 MOL       0.0595
     37 S1         18.4943   39.5290   18.4272 S.3         1 MOL       0.0026
     38 C1         17.8293   39.9040   19.9700 C.2         1 MOL       0.0809
     39 N1         16.8285   39.0416   20.2451 N.2         1 MOL      -0.2931
     40 C2         16.6012   38.1124   19.2799 C.ar        1 MOL       0.0375
     41 H1         23.4723   38.0652   20.9068 H           1 MOL       0.1855
     42 H2         24.2892   36.0631   19.6632 H           1 MOL       0.0584
     43 H3         25.9925   34.8726   20.7462 H           1 MOL       0.0313
     44 H4         25.1790   34.9261   22.3219 H           1 MOL       0.0313
     45 H5         26.5984   36.6752   22.8749 H           1 MOL       0.0503
     46 H6         27.0812   36.9226   21.1698 H           1 MOL       0.0503
     47 H7         22.0701   36.1021   21.4680 H           1 MOL       0.0634
     48 H8         22.9327   34.6359   21.8843 H           1 MOL       0.0634
     49 H9         20.9956   33.5268   18.1425 H           1 MOL       0.1873
     50 H10        19.9062   35.8162   16.8907 H           1 MOL       0.0604
     51 H11        22.2799   36.1655   16.2666 H           1 MOL       0.0449
     52 H12        21.2562   35.9541   14.8831 H           1 MOL       0.0449
     53 H13        21.2102   33.5001   13.8279 H           1 MOL       0.0557
     54 H14        22.6584   31.8017   12.9966 H           1 MOL       0.0599
     55 H15        24.9672   31.6873   13.7480 H           1 MOL       0.0559
     56 H16        25.7551   33.2162   15.4683 H           1 MOL       0.0599
     57 H17        24.2825   34.9014   16.3607 H           1 MOL       0.0557
     58 H18        20.0851   32.9146   16.0396 H           1 MOL       0.0634
     59 H19        19.0282   35.1403   14.6904 H           1 MOL       0.2100
     60 H20        18.0874   34.4128   17.5596 H           1 MOL       0.0504
     61 H21        18.2072   32.7148   17.2568 H           1 MOL       0.0504
     62 H22        17.8948   32.4374   14.4767 H           1 MOL       0.0481
     63 H23        16.5340   33.3250   13.8879 H           1 MOL       0.0481
     64 H24        15.8140   31.1941   13.9233 H           1 MOL       0.0314
     65 H25        16.1134   29.4363   15.5732 H           1 MOL       0.0233
     66 H26        16.9916   30.5406   16.6474 H           1 MOL       0.0233
     67 H27        17.6713   30.1001   15.0692 H           1 MOL       0.0233
     68 H28        13.9409   30.9661   15.3255 H           1 MOL       0.0266
     69 H29        14.1795   32.6749   15.0765 H           1 MOL       0.0266
     70 H30        13.5899   32.4737   17.3638 H           1 MOL       0.0230
     71 H31        15.3480   32.6282   17.4657 H           1 MOL       0.0230
     72 H32        14.5866   31.0341   17.6028 H           1 MOL       0.0230
     73 H33        14.7896   35.4682   18.2973 H           1 MOL       0.0580
     74 H34        15.0188   37.0062   20.1450 H           1 MOL       0.0584
     75 H35        17.9409   37.4441   16.2621 H           1 MOL       0.0592
     76 H36        18.1510   40.6537   20.5836 H           1 MOL       0.1260
@<TRIPOS>BOND
     1     1     2   2
     2     2     3  am
     3     2     6   1
     4     3     4   1
     5     4     5   1
     6     4     7   1
     7     5     6   1
     8     7     8   1
     9     8     9   1
    10     9    10   2
    11     9    11  am
    12    11    12   1
    13    12    13   1
    14    12    20   1
    15    13    14   1
    16    14    15  ar
    17    14    19  ar
    18    15    16  ar
    19    16    17  ar
    20    17    18  ar
    21    18    19  ar
    22    20    21   1
    23    20    22   1
    24    22    23   1
    25    23    24   1
    26    23    29  am
    27    24    25   1
    28    25    26   1
    29    25    27   1
    30    27    28   1
    31    29    30   2
    32    29    31   2
    33    29    32   1
    34    32    33  ar
    35    32    35  ar
    36    33    34  ar
    37    34    40  ar
    38    35    36  ar
    39    36    37   1
    40    36    40  ar
    41    37    38   1
    42    38    39   2
    43    39    40   1
    44     3    41   1
    45     4    42   1
    46     5    43   1
    47     5    44   1
    48     6    45   1
    49     6    46   1
    50     7    47   1
    51     7    48   1
    52    11    49   1
    53    12    50   1
    54    13    51   1
    55    13    52   1
    56    15    53   1
    57    16    54   1
    58    17    55   1
    59    18    56   1
    60    19    57   1
    61    20    58   1
    62    21    59   1
    63    22    60   1
    64    22    61   1
    65    24    62   1
    66    24    63   1
    67    25    64   1
    68    26    65   1
    69    26    66   1
    70    26    67   1
    71    27    68   1
    72    27    69   1
    73    28    70   1
    74    28    71   1
    75    28    72   1
    76    33    73   1
    77    34    74   1
    78    35    75   1
    79    38    76   1
@<TRIPOS>SUBSTRUCTURE
     1  MOL      2

