@<TRIPOS>MOLECULE
4djr_ligand_013
    76    79
SMALL
GAST_HUCK
****
This file was generated by PARSER (from files_GN.cpp)

@<TRIPOS>ATOM
      1 O28        14.1230   41.4334   20.1363 O.2         1 MOL      -0.3971
      2 C27        14.8217   40.8300   19.3358 C.2         1 MOL       0.1764
      3 N29        14.4502   39.7028   18.7818 N.am        1 MOL      -0.2812
      4 C24        15.4241   39.1231   17.9341 C.3         1 MOL       0.0716
      5 C25        16.5859   40.1516   17.9622 C.3         1 MOL      -0.0105
      6 C26        16.1501   41.2241   18.9832 C.3         1 MOL       0.0394
      7 C22        15.8037   37.7135   18.4428 C.3         1 MOL       0.1003
      8 O23        16.6792   37.0641   17.5120 O.3         1 MOL      -0.2616
      9 C21        17.2624   35.8545   17.7146 C.2         1 MOL       0.3200
     10 O22        17.0350   35.1847   18.8732 O.2         1 MOL      -0.3775
     11 N20        18.1587   35.4070   16.8041 N.am        1 MOL      -0.2550
     12 C19        19.0043   34.2563   16.9775 C.3         1 MOL       0.0807
     13 C32        18.8978   33.3969   15.6770 C.3         1 MOL       0.0064
     14 C38        19.5079   32.0335   15.7162 C.ar        1 MOL      -0.0408
     15 C37        20.2824   31.5475   14.6324 C.ar        1 MOL      -0.0603
     16 C36        20.7860   30.2318   14.6359 C.ar        1 MOL      -0.0686
     17 C35        20.5432   29.3863   15.7331 C.ar        1 MOL      -0.0687
     18 C34        19.7831   29.8539   16.8193 C.ar        1 MOL      -0.0686
     19 C33        19.2566   31.1587   16.8036 C.ar        1 MOL      -0.0603
     20 C17        20.4397   34.7613   17.3258 C.3         1 MOL       0.0967
     21 O18        21.3057   33.6534   17.5516 O.3         1 MOL      -0.3877
     22 C16        20.4801   35.6949   18.5821 C.3         1 MOL       0.0579
     23 N11        21.7708   36.2862   18.8652 N.am        1 MOL      -0.2317
     24 C12        22.3360   37.2807   17.9673 C.3         1 MOL       0.0322
     25 C13        21.3353   38.2383   17.2223 C.3         1 MOL      -0.0270
     26 C14        20.6610   39.2528   18.1943 C.3         1 MOL      -0.0610
     27 C15        22.0301   38.9964   16.0320 C.3         1 MOL      -0.0518
     28 C18        21.5251   38.5736   14.6285 C.3         1 MOL      -0.0650
     29 S8         22.8273   35.4242   19.8815 S.o2        1 MOL       0.0679
     30 O10        23.3605   34.1386   19.1107 O.2         1 MOL      -0.1506
     31 O9         22.0308   34.8431   21.1299 O.2         1 MOL      -0.1506
     32 C5         24.1450   36.2477   20.6706 C.ar        1 MOL       0.1007
     33 C6         25.3367   35.5416   20.9733 C.ar        1 MOL      -0.0433
     34 C7         26.4297   36.1964   21.5748 C.ar        1 MOL      -0.0517
     35 C4         24.0328   37.6116   21.0253 C.ar        1 MOL      -0.0206
     36 C3         25.1348   38.2465   21.6221 C.ar        1 MOL       0.0595
     37 S1         25.3847   39.8726   22.1050 S.3         1 MOL       0.0026
     38 C1         27.0131   39.6151   22.6027 C.2         1 MOL       0.0809
     39 N1         27.3331   38.3187   22.4102 N.2         1 MOL      -0.2931
     40 C2         26.3356   37.5646   21.8793 C.ar        1 MOL       0.0375
     41 H1         13.6082   39.2609   18.9850 H           1 MOL       0.1855
     42 H2         15.0106   39.0454   16.9241 H           1 MOL       0.0584
     43 H3         16.7189   40.5998   16.9719 H           1 MOL       0.0313
     44 H4         17.5359   39.6996   18.2622 H           1 MOL       0.0313
     45 H5         16.7910   41.2147   19.8676 H           1 MOL       0.0503
     46 H6         16.1506   42.2207   18.5372 H           1 MOL       0.0503
     47 H7         14.8992   37.1127   18.5555 H           1 MOL       0.0634
     48 H8         16.2907   37.7950   19.4196 H           1 MOL       0.0634
     49 H9         18.3174   35.9577   16.0117 H           1 MOL       0.1873
     50 H10        18.6618   33.6404   17.8169 H           1 MOL       0.0604
     51 H11        19.3134   33.9776   14.8467 H           1 MOL       0.0449
     52 H12        17.8389   33.2493   15.4421 H           1 MOL       0.0449
     53 H13        20.4632   32.1416   13.8186 H           1 MOL       0.0557
     54 H14        21.3213   29.8896   13.8356 H           1 MOL       0.0599
     55 H15        20.9114   28.4320   15.7373 H           1 MOL       0.0559
     56 H16        19.6070   29.2401   17.6169 H           1 MOL       0.0599
     57 H17        18.6802   31.4597   17.5945 H           1 MOL       0.0557
     58 H18        20.8211   35.2973   16.4559 H           1 MOL       0.0634
     59 H19        20.8921   33.1509   18.2859 H           1 MOL       0.2100
     60 H20        20.1021   35.1267   19.4406 H           1 MOL       0.0504
     61 H21        19.7790   36.5201   18.4624 H           1 MOL       0.0504
     62 H22        22.9261   36.7425   17.2205 H           1 MOL       0.0481
     63 H23        23.0375   37.9197   18.5122 H           1 MOL       0.0481
     64 H24        20.5233   37.6310   16.8067 H           1 MOL       0.0314
     65 H25        19.9033   39.8288   17.6568 H           1 MOL       0.0233
     66 H26        21.3988   39.9486   18.6013 H           1 MOL       0.0233
     67 H27        20.1637   38.7420   19.0239 H           1 MOL       0.0233
     68 H28        23.1137   38.8481   16.0611 H           1 MOL       0.0266
     69 H29        21.8661   40.0778   16.1046 H           1 MOL       0.0266
     70 H30        22.1103   39.0923   13.8601 H           1 MOL       0.0230
     71 H31        20.4704   38.8464   14.5044 H           1 MOL       0.0230
     72 H32        21.6286   37.4934   14.4818 H           1 MOL       0.0230
     73 H33        25.4225   34.5464   20.7561 H           1 MOL       0.0580
     74 H34        27.2952   35.6864   21.7702 H           1 MOL       0.0584
     75 H35        23.1809   38.1423   20.8382 H           1 MOL       0.0592
     76 H36        27.6434   40.3294   22.9676 H           1 MOL       0.1260
@<TRIPOS>BOND
     1     1     2   2
     2     2     3  am
     3     2     6   1
     4     3     4   1
     5     4     5   1
     6     4     7   1
     7     5     6   1
     8     7     8   1
     9     8     9   1
    10     9    10   2
    11     9    11  am
    12    11    12   1
    13    12    13   1
    14    12    20   1
    15    13    14   1
    16    14    15  ar
    17    14    19  ar
    18    15    16  ar
    19    16    17  ar
    20    17    18  ar
    21    18    19  ar
    22    20    21   1
    23    20    22   1
    24    22    23   1
    25    23    24   1
    26    23    29  am
    27    24    25   1
    28    25    26   1
    29    25    27   1
    30    27    28   1
    31    29    30   2
    32    29    31   2
    33    29    32   1
    34    32    33  ar
    35    32    35  ar
    36    33    34  ar
    37    34    40  ar
    38    35    36  ar
    39    36    37   1
    40    36    40  ar
    41    37    38   1
    42    38    39   2
    43    39    40   1
    44     3    41   1
    45     4    42   1
    46     5    43   1
    47     5    44   1
    48     6    45   1
    49     6    46   1
    50     7    47   1
    51     7    48   1
    52    11    49   1
    53    12    50   1
    54    13    51   1
    55    13    52   1
    56    15    53   1
    57    16    54   1
    58    17    55   1
    59    18    56   1
    60    19    57   1
    61    20    58   1
    62    21    59   1
    63    22    60   1
    64    22    61   1
    65    24    62   1
    66    24    63   1
    67    25    64   1
    68    26    65   1
    69    26    66   1
    70    26    67   1
    71    27    68   1
    72    27    69   1
    73    28    70   1
    74    28    71   1
    75    28    72   1
    76    33    73   1
    77    34    74   1
    78    35    75   1
    79    38    76   1
@<TRIPOS>SUBSTRUCTURE
     1  MOL      2

