@<TRIPOS>MOLECULE
4djr_ligand_084
    76    79
SMALL
GAST_HUCK
****
This file was generated by PARSER (from files_GN.cpp)

@<TRIPOS>ATOM
      1 O28        21.4904   32.4785   13.2474 O.2         1 MOL      -0.3971
      2 C27        21.1368   32.0881   14.3498 C.2         1 MOL       0.1764
      3 N29        19.8823   31.8855   14.6551 N.am        1 MOL      -0.2812
      4 C24        19.6619   31.4912   15.9967 C.3         1 MOL       0.0716
      5 C25        21.0993   31.3177   16.5535 C.3         1 MOL      -0.0105
      6 C26        22.0313   31.8572   15.4457 C.3         1 MOL       0.0394
      7 C22        18.7828   32.5300   16.7429 C.3         1 MOL       0.1003
      8 O23        19.4956   33.7459   17.0171 O.3         1 MOL      -0.2616
      9 C21        19.3706   34.5853   18.0793 C.2         1 MOL       0.3200
     10 O22        18.4392   34.3663   19.0394 O.2         1 MOL      -0.3775
     11 N20        20.1353   35.6987   18.0531 N.am        1 MOL      -0.2550
     12 C19        20.0835   36.8327   18.9425 C.3         1 MOL       0.0807
     13 C32        21.5489   37.3275   19.2202 C.3         1 MOL       0.0064
     14 C38        22.3835   36.5485   20.1973 C.ar        1 MOL      -0.0408
     15 C37        23.6738   37.0378   20.5333 C.ar        1 MOL      -0.0603
     16 C36        24.4635   36.4067   21.5126 C.ar        1 MOL      -0.0686
     17 C35        23.9877   35.2579   22.1634 C.ar        1 MOL      -0.0687
     18 C34        22.7247   34.7416   21.8287 C.ar        1 MOL      -0.0686
     19 C33        21.9406   35.3647   20.8412 C.ar        1 MOL      -0.0603
     20 C17        19.0845   37.8675   18.2896 C.3         1 MOL       0.0967
     21 O18        19.4239   39.2256   18.5920 O.3         1 MOL      -0.3877
     22 C16        17.6000   37.6147   18.7563 C.3         1 MOL       0.0579
     23 N11        16.5403   37.8041   17.7880 N.am        1 MOL      -0.2317
     24 C12        16.5603   37.0755   16.5303 C.3         1 MOL       0.0322
     25 C13        15.6049   35.8443   16.3569 C.3         1 MOL      -0.0270
     26 C14        15.8313   35.2263   14.9425 C.3         1 MOL      -0.0610
     27 C15        15.7666   34.8114   17.5193 C.3         1 MOL      -0.0518
     28 C18        14.6747   33.7261   17.6321 C.3         1 MOL      -0.0650
     29 S8         15.1800   38.7572   18.1718 S.o2        1 MOL       0.0679
     30 O10        13.8392   37.9366   17.9337 O.2         1 MOL      -0.1506
     31 O9         15.1376   39.9588   17.1314 O.2         1 MOL      -0.1506
     32 C5         14.9484   39.3973   19.7867 C.ar        1 MOL       0.1007
     33 C6         14.5815   40.7538   19.9806 C.ar        1 MOL      -0.0433
     34 C7         14.4104   41.2813   21.2781 C.ar        1 MOL      -0.0517
     35 C4         15.0862   38.5532   20.9146 C.ar        1 MOL      -0.0206
     36 C3         14.9415   39.1031   22.1977 C.ar        1 MOL       0.0595
     37 S1         15.1242   38.4097   23.7557 S.3         1 MOL       0.0026
     38 C1         14.7764   39.8731   24.5910 C.2         1 MOL       0.0809
     39 N1         14.5259   40.8473   23.6902 N.2         1 MOL      -0.2931
     40 C2         14.6171   40.4537   22.3945 C.ar        1 MOL       0.0375
     41 H1         19.1593   32.0279   14.0238 H           1 MOL       0.1855
     42 H2         19.1405   30.5276   15.9924 H           1 MOL       0.0584
     43 H3         21.3031   30.2560   16.7265 H           1 MOL       0.0313
     44 H4         21.2521   31.8549   17.4928 H           1 MOL       0.0313
     45 H5         22.5074   32.7946   15.7462 H           1 MOL       0.0503
     46 H6         22.7969   31.1249   15.1764 H           1 MOL       0.0503
     47 H7         18.3881   32.0803   17.6584 H           1 MOL       0.0634
     48 H8         17.9373   32.7811   16.0999 H           1 MOL       0.0634
     49 H9         20.6967   35.8038   17.2649 H           1 MOL       0.1873
     50 H10        19.6527   36.5608   19.9123 H           1 MOL       0.0604
     51 H11        21.4871   38.3450   19.6118 H           1 MOL       0.0449
     52 H12        22.1034   37.3970   18.2784 H           1 MOL       0.0449
     53 H13        24.0428   37.8824   20.0844 H           1 MOL       0.0557
     54 H14        25.3775   36.7891   21.7614 H           1 MOL       0.0599
     55 H15        24.5478   34.8030   22.8857 H           1 MOL       0.0559
     56 H16        22.3651   33.9125   22.3048 H           1 MOL       0.0599
     57 H17        21.0359   34.9544   20.6100 H           1 MOL       0.0557
     58 H18        19.1676   37.7997   17.1996 H           1 MOL       0.0634
     59 H19        19.3658   39.2921   19.5669 H           1 MOL       0.2100
     60 H20        17.4456   38.2438   19.6317 H           1 MOL       0.0504
     61 H21        17.4801   36.5955   19.1264 H           1 MOL       0.0504
     62 H22        17.5751   36.7179   16.3285 H           1 MOL       0.0481
     63 H23        16.3410   37.7940   15.7388 H           1 MOL       0.0481
     64 H24        14.5723   36.1991   16.3692 H           1 MOL       0.0314
     65 H25        15.1160   34.4306   14.7412 H           1 MOL       0.0233
     66 H26        16.8399   34.8206   14.8391 H           1 MOL       0.0233
     67 H27        15.6963   35.9921   14.1764 H           1 MOL       0.0233
     68 H28        15.7506   35.3510   18.4702 H           1 MOL       0.0266
     69 H29        16.7406   34.3192   17.4347 H           1 MOL       0.0266
     70 H30        14.9233   33.0541   18.4533 H           1 MOL       0.0230
     71 H31        14.6144   33.1323   16.7218 H           1 MOL       0.0230
     72 H32        13.7066   34.1856   17.8339 H           1 MOL       0.0230
     73 H33        14.4277   41.3718   19.1812 H           1 MOL       0.0580
     74 H34        14.1514   42.2622   21.4046 H           1 MOL       0.0584
     75 H35        15.3054   37.5615   20.8098 H           1 MOL       0.0592
     76 H36        14.7656   39.9885   25.6060 H           1 MOL       0.1260
@<TRIPOS>BOND
     1     1     2   2
     2     2     3  am
     3     2     6   1
     4     3     4   1
     5     4     5   1
     6     4     7   1
     7     5     6   1
     8     7     8   1
     9     8     9   1
    10     9    10   2
    11     9    11  am
    12    11    12   1
    13    12    13   1
    14    12    20   1
    15    13    14   1
    16    14    15  ar
    17    14    19  ar
    18    15    16  ar
    19    16    17  ar
    20    17    18  ar
    21    18    19  ar
    22    20    21   1
    23    20    22   1
    24    22    23   1
    25    23    24   1
    26    23    29  am
    27    24    25   1
    28    25    26   1
    29    25    27   1
    30    27    28   1
    31    29    30   2
    32    29    31   2
    33    29    32   1
    34    32    33  ar
    35    32    35  ar
    36    33    34  ar
    37    34    40  ar
    38    35    36  ar
    39    36    37   1
    40    36    40  ar
    41    37    38   1
    42    38    39   2
    43    39    40   1
    44     3    41   1
    45     4    42   1
    46     5    43   1
    47     5    44   1
    48     6    45   1
    49     6    46   1
    50     7    47   1
    51     7    48   1
    52    11    49   1
    53    12    50   1
    54    13    51   1
    55    13    52   1
    56    15    53   1
    57    16    54   1
    58    17    55   1
    59    18    56   1
    60    19    57   1
    61    20    58   1
    62    21    59   1
    63    22    60   1
    64    22    61   1
    65    24    62   1
    66    24    63   1
    67    25    64   1
    68    26    65   1
    69    26    66   1
    70    26    67   1
    71    27    68   1
    72    27    69   1
    73    28    70   1
    74    28    71   1
    75    28    72   1
    76    33    73   1
    77    34    74   1
    78    35    75   1
    79    38    76   1
@<TRIPOS>SUBSTRUCTURE
     1  MOL      2

