@<TRIPOS>MOLECULE
4djr_ligand_032
    76    79
SMALL
GAST_HUCK
****
This file was generated by PARSER (from files_GN.cpp)

@<TRIPOS>ATOM
      1 O28        23.7224   30.2834   13.4091 O.2         1 MOL      -0.3971
      2 C27        23.2270   31.3532   13.7306 C.2         1 MOL       0.1764
      3 N29        23.8825   32.4851   13.6872 N.am        1 MOL      -0.2812
      4 C24        23.1423   33.6024   14.1441 C.3         1 MOL       0.0716
      5 C25        21.7544   32.9934   14.4864 C.3         1 MOL      -0.0105
      6 C26        21.8820   31.4845   14.2041 C.3         1 MOL       0.0394
      7 C22        23.9075   34.2867   15.3105 C.3         1 MOL       0.1003
      8 O23        23.0294   35.1101   16.0878 O.3         1 MOL      -0.2616
      9 C21        22.5604   34.8256   17.3313 C.2         1 MOL       0.3200
     10 O22        22.9109   33.6802   17.9673 O.2         1 MOL      -0.3775
     11 N20        21.6145   35.6515   17.8249 N.am        1 MOL      -0.2550
     12 C19        20.7520   35.3759   18.9403 C.3         1 MOL       0.0807
     13 C32        21.0634   36.3356   20.1371 C.3         1 MOL       0.0064
     14 C38        21.5763   37.6841   19.7472 C.ar        1 MOL      -0.0408
     15 C37        20.7127   38.6627   19.1972 C.ar        1 MOL      -0.0603
     16 C36        21.2174   39.9010   18.7556 C.ar        1 MOL      -0.0686
     17 C35        22.5919   40.1800   18.8597 C.ar        1 MOL      -0.0687
     18 C34        23.4605   39.2271   19.4187 C.ar        1 MOL      -0.0686
     19 C33        22.9561   37.9903   19.8602 C.ar        1 MOL      -0.0603
     20 C17        19.2366   35.3576   18.5126 C.3         1 MOL       0.0967
     21 O18        18.5455   34.4420   19.3710 O.3         1 MOL      -0.3877
     22 C16        18.9628   34.9508   17.0260 C.3         1 MOL       0.0579
     23 N11        17.6147   34.6920   16.5416 N.am        1 MOL      -0.2317
     24 C12        17.4775   33.9957   15.2723 C.3         1 MOL       0.0322
     25 C13        17.6487   32.4358   15.3271 C.3         1 MOL      -0.0270
     26 C14        17.2668   31.8158   16.7046 C.3         1 MOL      -0.0610
     27 C15        16.8638   31.7606   14.1545 C.3         1 MOL      -0.0518
     28 C18        17.2569   30.2951   13.8450 C.3         1 MOL      -0.0650
     29 S8         16.2184   35.3217   17.2896 S.o2        1 MOL       0.0679
     30 O10        15.9528   34.6349   18.7006 O.2         1 MOL      -0.1506
     31 O9         14.9131   34.8123   16.5306 O.2         1 MOL      -0.1506
     32 C5         15.9562   37.0401   17.3940 C.ar        1 MOL       0.1007
     33 C6         14.7800   37.5290   18.0141 C.ar        1 MOL      -0.0433
     34 C7         14.5475   38.9138   18.1314 C.ar        1 MOL      -0.0517
     35 C4         16.8986   37.9493   16.8635 C.ar        1 MOL      -0.0206
     36 C3         16.6508   39.3242   16.9980 C.ar        1 MOL       0.0595
     37 S1         17.5676   40.6871   16.5059 S.3         1 MOL       0.0026
     38 C1         16.4418   41.8298   17.1288 C.2         1 MOL       0.0809
     39 N1         15.4027   41.1713   17.6850 N.2         1 MOL      -0.2931
     40 C2         15.4958   39.8188   17.6245 C.ar        1 MOL       0.0375
     41 H1         24.8138   32.5529   13.4115 H           1 MOL       0.1855
     42 H2         23.0371   34.3130   13.3193 H           1 MOL       0.0584
     43 H3         20.9805   33.4332   13.8544 H           1 MOL       0.0313
     44 H4         21.4737   33.1476   15.5261 H           1 MOL       0.0313
     45 H5         21.7395   30.8948   15.1146 H           1 MOL       0.0503
     46 H6         21.1742   31.1579   13.4354 H           1 MOL       0.0503
     47 H7         24.6926   34.9282   14.9077 H           1 MOL       0.0634
     48 H8         24.3948   33.5305   15.9348 H           1 MOL       0.0634
     49 H9         21.4332   36.4658   17.3256 H           1 MOL       0.1873
     50 H10        20.9630   34.3658   19.3087 H           1 MOL       0.0604
     51 H11        21.8057   35.8497   20.7765 H           1 MOL       0.0449
     52 H12        20.1747   36.4574   20.7655 H           1 MOL       0.0449
     53 H13        19.7097   38.4799   19.1148 H           1 MOL       0.0557
     54 H14        20.5845   40.5947   18.3536 H           1 MOL       0.0599
     55 H15        22.9576   41.0736   18.5312 H           1 MOL       0.0559
     56 H16        24.4593   39.4265   19.4928 H           1 MOL       0.0599
     57 H17        23.6089   37.3009   20.2432 H           1 MOL       0.0557
     58 H18        18.7945   36.3440   18.6697 H           1 MOL       0.0634
     59 H19        18.9326   33.5616   19.1636 H           1 MOL       0.2100
     60 H20        19.5624   34.0510   16.8480 H           1 MOL       0.0504
     61 H21        19.3727   35.7432   16.3922 H           1 MOL       0.0504
     62 H22        18.2217   34.3905   14.5721 H           1 MOL       0.0481
     63 H23        16.5192   34.2285   14.8025 H           1 MOL       0.0481
     64 H24        18.7127   32.2221   15.1769 H           1 MOL       0.0314
     65 H25        17.4234   30.7355   16.7112 H           1 MOL       0.0233
     66 H26        16.2210   32.0182   16.9454 H           1 MOL       0.0233
     67 H27        17.8933   32.2282   17.4972 H           1 MOL       0.0233
     68 H28        17.0308   32.3304   13.2368 H           1 MOL       0.0266
     69 H29        15.7914   31.7918   14.3683 H           1 MOL       0.0266
     70 H30        16.6927   29.9390   12.9781 H           1 MOL       0.0230
     71 H31        17.0313   29.6384   14.6872 H           1 MOL       0.0230
     72 H32        18.3238   30.2297   13.6163 H           1 MOL       0.0230
     73 H33        14.0869   36.8773   18.3836 H           1 MOL       0.0580
     74 H34        13.6992   39.2566   18.5819 H           1 MOL       0.0584
     75 H35        17.7514   37.6288   16.3976 H           1 MOL       0.0592
     76 H36        16.5444   42.8446   17.0876 H           1 MOL       0.1260
@<TRIPOS>BOND
     1     1     2   2
     2     2     3  am
     3     2     6   1
     4     3     4   1
     5     4     5   1
     6     4     7   1
     7     5     6   1
     8     7     8   1
     9     8     9   1
    10     9    10   2
    11     9    11  am
    12    11    12   1
    13    12    13   1
    14    12    20   1
    15    13    14   1
    16    14    15  ar
    17    14    19  ar
    18    15    16  ar
    19    16    17  ar
    20    17    18  ar
    21    18    19  ar
    22    20    21   1
    23    20    22   1
    24    22    23   1
    25    23    24   1
    26    23    29  am
    27    24    25   1
    28    25    26   1
    29    25    27   1
    30    27    28   1
    31    29    30   2
    32    29    31   2
    33    29    32   1
    34    32    33  ar
    35    32    35  ar
    36    33    34  ar
    37    34    40  ar
    38    35    36  ar
    39    36    37   1
    40    36    40  ar
    41    37    38   1
    42    38    39   2
    43    39    40   1
    44     3    41   1
    45     4    42   1
    46     5    43   1
    47     5    44   1
    48     6    45   1
    49     6    46   1
    50     7    47   1
    51     7    48   1
    52    11    49   1
    53    12    50   1
    54    13    51   1
    55    13    52   1
    56    15    53   1
    57    16    54   1
    58    17    55   1
    59    18    56   1
    60    19    57   1
    61    20    58   1
    62    21    59   1
    63    22    60   1
    64    22    61   1
    65    24    62   1
    66    24    63   1
    67    25    64   1
    68    26    65   1
    69    26    66   1
    70    26    67   1
    71    27    68   1
    72    27    69   1
    73    28    70   1
    74    28    71   1
    75    28    72   1
    76    33    73   1
    77    34    74   1
    78    35    75   1
    79    38    76   1
@<TRIPOS>SUBSTRUCTURE
     1  MOL      2

