@<TRIPOS>MOLECULE
4djr_ligand_082
    76    79
SMALL
GAST_HUCK
****
This file was generated by PARSER (from files_GN.cpp)

@<TRIPOS>ATOM
      1 O28        19.2086   42.2258   16.1440 O.2         1 MOL      -0.3971
      2 C27        20.0192   41.7581   15.3597 C.2         1 MOL       0.1764
      3 N29        19.8238   40.6263   14.7283 N.am        1 MOL      -0.2812
      4 C24        20.9183   40.1924   13.9394 C.3         1 MOL       0.0716
      5 C25        21.8461   41.4434   13.9573 C.3         1 MOL      -0.0105
      6 C26        21.2954   42.3460   15.0799 C.3         1 MOL       0.0394
      7 C22        21.5440   38.8606   14.4711 C.3         1 MOL       0.1003
      8 O23        20.9200   38.4030   15.6796 O.3         1 MOL      -0.2616
      9 C21        21.2482   37.3214   16.4362 C.2         1 MOL       0.3200
     10 O22        22.2934   36.5272   16.1022 O.2         1 MOL      -0.3775
     11 N20        20.4924   37.1107   17.5362 N.am        1 MOL      -0.2550
     12 C19        20.6689   36.1161   18.5628 C.3         1 MOL       0.0807
     13 C32        20.9944   36.8379   19.9257 C.3         1 MOL       0.0064
     14 C38        22.4086   36.7046   20.3735 C.ar        1 MOL      -0.0408
     15 C37        22.9546   35.4227   20.6293 C.ar        1 MOL      -0.0603
     16 C36        24.2860   35.2785   21.0647 C.ar        1 MOL      -0.0686
     17 C35        25.0795   36.4190   21.2851 C.ar        1 MOL      -0.0687
     18 C34        24.5401   37.6996   21.0687 C.ar        1 MOL      -0.0686
     19 C33        23.2161   37.8390   20.6103 C.ar        1 MOL      -0.0603
     20 C17        19.4264   35.1562   18.6665 C.3         1 MOL       0.0967
     21 O18        19.6210   34.0084   17.8490 O.3         1 MOL      -0.3877
     22 C16        18.0197   35.8081   18.4472 C.3         1 MOL       0.0579
     23 N11        17.4309   35.8245   17.1188 N.am        1 MOL      -0.2317
     24 C12        16.9612   37.0599   16.5178 C.3         1 MOL       0.0322
     25 C13        15.7277   37.7883   17.1662 C.3         1 MOL      -0.0270
     26 C14        14.5160   36.8419   17.4006 C.3         1 MOL      -0.0610
     27 C15        16.0710   38.6080   18.4560 C.3         1 MOL      -0.0518
     28 C18        15.1116   39.7859   18.7576 C.3         1 MOL      -0.0650
     29 S8         17.0120   34.3576   16.3646 S.o2        1 MOL       0.0679
     30 O10        15.5683   34.4254   15.7025 O.2         1 MOL      -0.1506
     31 O9         16.7368   33.2594   17.4860 O.2         1 MOL      -0.1506
     32 C5         18.0922   33.6450   15.1988 C.ar        1 MOL       0.1007
     33 C6         19.4014   34.1600   15.0143 C.ar        1 MOL      -0.0433
     34 C7         20.3129   33.5087   14.1565 C.ar        1 MOL      -0.0517
     35 C4         17.6772   32.5162   14.4581 C.ar        1 MOL      -0.0206
     36 C3         18.5849   31.9097   13.5742 C.ar        1 MOL       0.0595
     37 S1         18.4275   30.5492   12.5439 S.3         1 MOL       0.0026
     38 C1         20.0407   30.6458   11.9539 C.2         1 MOL       0.0809
     39 N1         20.6598   31.7001   12.5341 N.2         1 MOL      -0.2931
     40 C2         19.8942   32.3847   13.4219 C.ar        1 MOL       0.0375
     41 H1         19.0208   40.0984   14.8433 H           1 MOL       0.1855
     42 H2         20.5534   40.0321   12.9196 H           1 MOL       0.0584
     43 H3         21.7714   41.9693   12.9993 H           1 MOL       0.0313
     44 H4         22.8981   41.2041   14.1276 H           1 MOL       0.0313
     45 H5         21.9270   42.3118   15.9697 H           1 MOL       0.0503
     46 H6         21.1825   43.3789   14.7448 H           1 MOL       0.0503
     47 H7         22.6102   38.9877   14.6633 H           1 MOL       0.0634
     48 H8         21.4343   38.0809   13.7125 H           1 MOL       0.0634
     49 H9         19.7893   37.7577   17.6869 H           1 MOL       0.1873
     50 H10        21.5208   35.4830   18.2916 H           1 MOL       0.0604
     51 H11        20.3859   36.4417   20.7412 H           1 MOL       0.0449
     52 H12        20.7115   37.8904   19.8532 H           1 MOL       0.0449
     53 H13        22.3889   34.5816   20.4949 H           1 MOL       0.0557
     54 H14        24.6767   34.3469   21.2281 H           1 MOL       0.0599
     55 H15        26.0463   36.3147   21.6081 H           1 MOL       0.0559
     56 H16        25.1159   38.5283   21.2392 H           1 MOL       0.0599
     57 H17        22.8451   38.7809   20.4658 H           1 MOL       0.0557
     58 H18        19.3988   34.7403   19.6760 H           1 MOL       0.0634
     59 H19        20.1330   33.3738   18.4134 H           1 MOL       0.2100
     60 H20        18.1194   36.8229   18.8342 H           1 MOL       0.0504
     61 H21        17.2997   35.3254   19.1156 H           1 MOL       0.0504
     62 H22        16.7120   36.8814   15.4677 H           1 MOL       0.0481
     63 H23        17.8035   37.7513   16.4858 H           1 MOL       0.0481
     64 H24        15.4062   38.5220   16.4199 H           1 MOL       0.0314
     65 H25        13.6672   37.3902   17.8103 H           1 MOL       0.0233
     66 H26        14.7691   36.0437   18.0997 H           1 MOL       0.0233
     67 H27        14.1945   36.3966   16.4607 H           1 MOL       0.0233
     68 H28        17.0694   39.0418   18.3594 H           1 MOL       0.0266
     69 H29        16.0818   37.9496   19.3314 H           1 MOL       0.0266
     70 H30        15.4699   40.3344   19.6322 H           1 MOL       0.0230
     71 H31        14.1006   39.4275   18.9673 H           1 MOL       0.0230
     72 H32        15.0752   40.4763   17.9128 H           1 MOL       0.0230
     73 H33        19.6999   34.9932   15.5220 H           1 MOL       0.0580
     74 H34        21.2720   33.8526   14.0616 H           1 MOL       0.0584
     75 H35        16.7373   32.1267   14.5630 H           1 MOL       0.0592
     76 H36        20.4587   30.0231   11.2606 H           1 MOL       0.1260
@<TRIPOS>BOND
     1     1     2   2
     2     2     3  am
     3     2     6   1
     4     3     4   1
     5     4     5   1
     6     4     7   1
     7     5     6   1
     8     7     8   1
     9     8     9   1
    10     9    10   2
    11     9    11  am
    12    11    12   1
    13    12    13   1
    14    12    20   1
    15    13    14   1
    16    14    15  ar
    17    14    19  ar
    18    15    16  ar
    19    16    17  ar
    20    17    18  ar
    21    18    19  ar
    22    20    21   1
    23    20    22   1
    24    22    23   1
    25    23    24   1
    26    23    29  am
    27    24    25   1
    28    25    26   1
    29    25    27   1
    30    27    28   1
    31    29    30   2
    32    29    31   2
    33    29    32   1
    34    32    33  ar
    35    32    35  ar
    36    33    34  ar
    37    34    40  ar
    38    35    36  ar
    39    36    37   1
    40    36    40  ar
    41    37    38   1
    42    38    39   2
    43    39    40   1
    44     3    41   1
    45     4    42   1
    46     5    43   1
    47     5    44   1
    48     6    45   1
    49     6    46   1
    50     7    47   1
    51     7    48   1
    52    11    49   1
    53    12    50   1
    54    13    51   1
    55    13    52   1
    56    15    53   1
    57    16    54   1
    58    17    55   1
    59    18    56   1
    60    19    57   1
    61    20    58   1
    62    21    59   1
    63    22    60   1
    64    22    61   1
    65    24    62   1
    66    24    63   1
    67    25    64   1
    68    26    65   1
    69    26    66   1
    70    26    67   1
    71    27    68   1
    72    27    69   1
    73    28    70   1
    74    28    71   1
    75    28    72   1
    76    33    73   1
    77    34    74   1
    78    35    75   1
    79    38    76   1
@<TRIPOS>SUBSTRUCTURE
     1  MOL      2

