@<TRIPOS>MOLECULE
4djr_ligand_004
    76    79
SMALL
GAST_HUCK
****
This file was generated by PARSER (from files_GN.cpp)

@<TRIPOS>ATOM
      1 O28        13.8602   41.8777   17.9246 O.2         1 MOL      -0.3971
      2 C27        14.7751   42.0694   17.1388 C.2         1 MOL       0.1764
      3 N29        15.4891   41.0988   16.6353 N.am        1 MOL      -0.2812
      4 C24        16.4670   41.5149   15.7020 C.3         1 MOL       0.0716
      5 C25        16.3519   43.0656   15.7343 C.3         1 MOL      -0.0105
      6 C26        15.1237   43.3594   16.6235 C.3         1 MOL       0.0394
      7 C22        17.8646   40.9634   16.0801 C.3         1 MOL       0.1003
      8 O23        17.8721   39.5271   16.1122 O.3         1 MOL      -0.2616
      9 C21        17.6842   38.7042   17.1774 C.2         1 MOL       0.3200
     10 O22        17.3729   39.2282   18.3861 O.2         1 MOL      -0.3775
     11 N20        17.7648   37.3669   16.9908 N.am        1 MOL      -0.2550
     12 C19        17.5846   36.3752   18.0196 C.3         1 MOL       0.0807
     13 C32        16.0641   36.0065   18.1533 C.3         1 MOL       0.0064
     14 C38        15.5924   34.9521   17.2076 C.ar        1 MOL      -0.0408
     15 C37        15.4184   33.6129   17.6421 C.ar        1 MOL      -0.0603
     16 C36        15.1500   32.5871   16.7163 C.ar        1 MOL      -0.0686
     17 C35        15.0544   32.8847   15.3478 C.ar        1 MOL      -0.0687
     18 C34        15.1842   34.2151   14.9071 C.ar        1 MOL      -0.0686
     19 C33        15.4303   35.2434   15.8335 C.ar        1 MOL      -0.0603
     20 C17        18.5118   35.1269   17.8067 C.3         1 MOL       0.0967
     21 O18        18.5273   34.3776   19.0185 O.3         1 MOL      -0.3877
     22 C16        19.9434   35.4179   17.2755 C.3         1 MOL       0.0579
     23 N11        20.9193   35.8955   18.2381 N.am        1 MOL      -0.2317
     24 C12        21.6625   34.9688   19.0669 C.3         1 MOL       0.0322
     25 C13        21.5980   35.2193   20.6328 C.3         1 MOL      -0.0270
     26 C14        20.8135   34.0856   21.3611 C.3         1 MOL      -0.0610
     27 C15        22.9635   35.5129   21.3596 C.3         1 MOL      -0.0518
     28 C18        24.2980   35.2729   20.6064 C.3         1 MOL      -0.0650
     29 S8         21.4184   37.5223   18.1750 S.o2        1 MOL       0.0679
     30 O10        22.9268   37.6019   18.6764 O.2         1 MOL      -0.1506
     31 O9         20.6531   38.3836   19.2736 O.2         1 MOL      -0.1506
     32 C5         21.5211   38.3929   16.6632 C.ar        1 MOL       0.1007
     33 C6         21.5045   37.7482   15.3981 C.ar        1 MOL      -0.0433
     34 C7         21.5624   38.4916   14.2017 C.ar        1 MOL      -0.0517
     35 C4         21.6613   39.8044   16.7117 C.ar        1 MOL      -0.0206
     36 C3         21.7474   40.5190   15.5111 C.ar        1 MOL       0.0595
     37 S1         21.9090   42.2008   15.2171 S.3         1 MOL       0.0026
     38 C1         21.8945   42.0290   13.5055 C.2         1 MOL       0.0809
     39 N1         21.7698   40.7219   13.1847 N.2         1 MOL      -0.2931
     40 C2         21.6897   39.8930   14.2548 C.ar        1 MOL       0.0375
     41 H1         15.3339   40.1652   16.8501 H           1 MOL       0.1855
     42 H2         16.1839   41.1374   14.7147 H           1 MOL       0.0584
     43 H3         16.2067   43.4661   14.7270 H           1 MOL       0.0313
     44 H4         17.2429   43.5314   16.1643 H           1 MOL       0.0313
     45 H5         15.3711   44.0462   17.4372 H           1 MOL       0.0503
     46 H6         14.2946   43.7644   16.0357 H           1 MOL       0.0503
     47 H7         18.1823   41.3755   17.0400 H           1 MOL       0.0634
     48 H8         18.5838   41.2797   15.3223 H           1 MOL       0.0634
     49 H9         17.9928   37.0605   16.0964 H           1 MOL       0.1873
     50 H10        17.8990   36.8082   18.9793 H           1 MOL       0.0604
     51 H11        15.4503   36.9019   18.0138 H           1 MOL       0.0449
     52 H12        15.8920   35.6845   19.1829 H           1 MOL       0.0449
     53 H13        15.5416   33.3637   18.6232 H           1 MOL       0.0557
     54 H14        15.0514   31.6216   17.0380 H           1 MOL       0.0599
     55 H15        14.8892   32.1334   14.6712 H           1 MOL       0.0559
     56 H16        15.1160   34.4311   13.9112 H           1 MOL       0.0599
     57 H17        15.5406   36.2001   15.4902 H           1 MOL       0.0557
     58 H18        18.0588   34.5010   17.0298 H           1 MOL       0.0634
     59 H19        19.1114   33.6092   18.8600 H           1 MOL       0.2100
     60 H20        19.8427   36.1112   16.4446 H           1 MOL       0.0504
     61 H21        20.3226   34.4932   16.8207 H           1 MOL       0.0504
     62 H22        22.6916   34.9894   18.7048 H           1 MOL       0.0481
     63 H23        21.3342   33.9410   18.8721 H           1 MOL       0.0481
     64 H24        20.9775   36.1081   20.7942 H           1 MOL       0.0314
     65 H25        20.7063   34.3142   22.4253 H           1 MOL       0.0233
     66 H26        21.3306   33.1318   21.2554 H           1 MOL       0.0233
     67 H27        19.8112   33.9972   20.9429 H           1 MOL       0.0233
     68 H28        23.0304   34.9112   22.2785 H           1 MOL       0.0266
     69 H29        22.9700   36.5579   21.6943 H           1 MOL       0.0266
     70 H30        25.1301   35.2789   21.3070 H           1 MOL       0.0230
     71 H31        24.4576   36.0688   19.8829 H           1 MOL       0.0230
     72 H32        24.2835   34.3123   20.0890 H           1 MOL       0.0230
     73 H33        21.4463   36.7268   15.3426 H           1 MOL       0.0580
     74 H34        21.5286   38.0076   13.3025 H           1 MOL       0.0584
     75 H35        21.6996   40.3103   17.6022 H           1 MOL       0.0592
     76 H36        21.9617   42.7932   12.8380 H           1 MOL       0.1260
@<TRIPOS>BOND
     1     1     2   2
     2     2     3  am
     3     2     6   1
     4     3     4   1
     5     4     5   1
     6     4     7   1
     7     5     6   1
     8     7     8   1
     9     8     9   1
    10     9    10   2
    11     9    11  am
    12    11    12   1
    13    12    13   1
    14    12    20   1
    15    13    14   1
    16    14    15  ar
    17    14    19  ar
    18    15    16  ar
    19    16    17  ar
    20    17    18  ar
    21    18    19  ar
    22    20    21   1
    23    20    22   1
    24    22    23   1
    25    23    24   1
    26    23    29  am
    27    24    25   1
    28    25    26   1
    29    25    27   1
    30    27    28   1
    31    29    30   2
    32    29    31   2
    33    29    32   1
    34    32    33  ar
    35    32    35  ar
    36    33    34  ar
    37    34    40  ar
    38    35    36  ar
    39    36    37   1
    40    36    40  ar
    41    37    38   1
    42    38    39   2
    43    39    40   1
    44     3    41   1
    45     4    42   1
    46     5    43   1
    47     5    44   1
    48     6    45   1
    49     6    46   1
    50     7    47   1
    51     7    48   1
    52    11    49   1
    53    12    50   1
    54    13    51   1
    55    13    52   1
    56    15    53   1
    57    16    54   1
    58    17    55   1
    59    18    56   1
    60    19    57   1
    61    20    58   1
    62    21    59   1
    63    22    60   1
    64    22    61   1
    65    24    62   1
    66    24    63   1
    67    25    64   1
    68    26    65   1
    69    26    66   1
    70    26    67   1
    71    27    68   1
    72    27    69   1
    73    28    70   1
    74    28    71   1
    75    28    72   1
    76    33    73   1
    77    34    74   1
    78    35    75   1
    79    38    76   1
@<TRIPOS>SUBSTRUCTURE
     1  MOL      2

