@<TRIPOS>MOLECULE
4djr_ligand_095
    76    79
SMALL
GAST_HUCK
****
This file was generated by PARSER (from files_GN.cpp)

@<TRIPOS>ATOM
      1 O28        25.4899   40.8455   13.1457 O.2         1 MOL      -0.3971
      2 C27        24.5998   40.6205   13.9469 C.2         1 MOL       0.1764
      3 N29        24.7906   40.6197   15.2429 N.am        1 MOL      -0.2812
      4 C24        23.6322   40.3426   16.0054 C.3         1 MOL       0.0716
      5 C25        22.5531   40.0634   14.9226 C.3         1 MOL      -0.0105
      6 C26        23.2423   40.3564   13.5730 C.3         1 MOL       0.0394
      7 C22        23.8848   39.1692   16.9889 C.3         1 MOL       0.1003
      8 O23        22.6367   38.6411   17.4535 O.3         1 MOL      -0.2616
      9 C21        22.3952   37.3693   17.8589 C.2         1 MOL       0.3200
     10 O22        23.4043   36.4702   17.9461 O.2         1 MOL      -0.3775
     11 N20        21.1332   37.0656   18.2397 N.am        1 MOL      -0.2550
     12 C19        20.6757   35.8035   18.7609 C.3         1 MOL       0.0807
     13 C32        20.7497   35.8491   20.3208 C.3         1 MOL       0.0064
     14 C38        22.1370   36.0087   20.8610 C.ar        1 MOL      -0.0408
     15 C37        22.8608   37.2162   20.6713 C.ar        1 MOL      -0.0603
     16 C36        24.1878   37.3437   21.1040 C.ar        1 MOL      -0.0686
     17 C35        24.8257   36.2673   21.7483 C.ar        1 MOL      -0.0687
     18 C34        24.1147   35.0762   21.9787 C.ar        1 MOL      -0.0686
     19 C33        22.7757   34.9562   21.5588 C.ar        1 MOL      -0.0603
     20 C17        19.2262   35.5360   18.2105 C.3         1 MOL       0.0967
     21 O18        18.5375   34.4714   18.8785 O.3         1 MOL      -0.3877
     22 C16        19.0898   35.3623   16.6513 C.3         1 MOL       0.0579
     23 N11        19.1064   34.0194   16.0830 N.am        1 MOL      -0.2317
     24 C12        20.1613   33.0596   16.3519 C.3         1 MOL       0.0322
     25 C13        21.4538   33.0445   15.4643 C.3         1 MOL      -0.0270
     26 C14        21.2356   32.4914   14.0320 C.3         1 MOL      -0.0610
     27 C15        22.2237   34.4038   15.4252 C.3         1 MOL      -0.0518
     28 C18        23.7567   34.2686   15.2934 C.3         1 MOL      -0.0650
     29 S8         17.9108   33.6462   14.9223 S.o2        1 MOL       0.0679
     30 O10        18.0890   34.5695   13.6388 O.2         1 MOL      -0.1506
     31 O9         16.4963   34.0120   15.5387 O.2         1 MOL      -0.1506
     32 C5         17.7445   31.9754   14.4280 C.ar        1 MOL       0.1007
     33 C6         17.1754   31.0218   15.3131 C.ar        1 MOL      -0.0433
     34 C7         17.1156   29.6578   14.9556 C.ar        1 MOL      -0.0517
     35 C4         18.2111   31.5545   13.1628 C.ar        1 MOL      -0.0206
     36 C3         18.1781   30.1914   12.8455 C.ar        1 MOL       0.0595
     37 S1         18.7449   29.3398   11.4719 S.3         1 MOL       0.0026
     38 C1         18.2669   27.7987   12.0692 C.2         1 MOL       0.0809
     39 N1         17.6945   27.9538   13.2846 N.2         1 MOL      -0.2931
     40 C2         17.6408   29.2353   13.7257 C.ar        1 MOL       0.0375
     41 H1         25.6544   40.7988   15.6450 H           1 MOL       0.1855
     42 H2         23.3674   41.2401   16.5739 H           1 MOL       0.0584
     43 H3         21.6815   40.7091   15.0649 H           1 MOL       0.0313
     44 H4         22.2173   39.0220   14.9408 H           1 MOL       0.0313
     45 H5         23.1837   39.4928   12.9046 H           1 MOL       0.0503
     46 H6         22.8041   41.2325   13.0844 H           1 MOL       0.0503
     47 H7         24.4665   39.5202   17.8425 H           1 MOL       0.0634
     48 H8         24.4530   38.3879   16.4802 H           1 MOL       0.0634
     49 H9         20.4916   37.7980   18.2232 H           1 MOL       0.1873
     50 H10        21.3227   34.9900   18.4390 H           1 MOL       0.0604
     51 H11        20.3149   34.9247   20.7054 H           1 MOL       0.0449
     52 H12        20.1265   36.6648   20.6910 H           1 MOL       0.0449
     53 H13        22.4230   38.0119   20.2046 H           1 MOL       0.0557
     54 H14        24.7015   38.2176   20.9441 H           1 MOL       0.0599
     55 H15        25.8005   36.3540   22.0495 H           1 MOL       0.0559
     56 H16        24.5793   34.2967   22.4523 H           1 MOL       0.0599
     57 H17        22.2771   34.0884   21.7462 H           1 MOL       0.0557
     58 H18        18.6442   36.4240   18.4865 H           1 MOL       0.0634
     59 H19        19.1098   33.6786   18.8172 H           1 MOL       0.2100
     60 H20        19.8448   35.9624   16.1448 H           1 MOL       0.0504
     61 H21        18.1439   35.8524   16.3932 H           1 MOL       0.0504
     62 H22        19.7379   32.0525   16.3436 H           1 MOL       0.0481
     63 H23        20.4968   33.1887   17.3789 H           1 MOL       0.0481
     64 H24        22.1140   32.3182   15.9511 H           1 MOL       0.0314
     65 H25        22.1860   32.4010   13.5023 H           1 MOL       0.0233
     66 H26        20.5896   33.1534   13.4592 H           1 MOL       0.0233
     67 H27        20.7892   31.4950   14.0763 H           1 MOL       0.0233
     68 H28        22.0518   34.9315   16.3582 H           1 MOL       0.0266
     69 H29        21.8408   35.0343   14.6174 H           1 MOL       0.0266
     70 H30        24.2203   35.2539   15.2733 H           1 MOL       0.0230
     71 H31        24.0228   33.7400   14.3761 H           1 MOL       0.0230
     72 H32        24.1590   33.7233   16.1481 H           1 MOL       0.0230
     73 H33        16.8111   31.3115   16.2236 H           1 MOL       0.0580
     74 H34        16.6953   28.9782   15.5941 H           1 MOL       0.0584
     75 H35        18.6099   32.2163   12.4933 H           1 MOL       0.0592
     76 H36        18.4074   26.9092   11.5910 H           1 MOL       0.1260
@<TRIPOS>BOND
     1     1     2   2
     2     2     3  am
     3     2     6   1
     4     3     4   1
     5     4     5   1
     6     4     7   1
     7     5     6   1
     8     7     8   1
     9     8     9   1
    10     9    10   2
    11     9    11  am
    12    11    12   1
    13    12    13   1
    14    12    20   1
    15    13    14   1
    16    14    15  ar
    17    14    19  ar
    18    15    16  ar
    19    16    17  ar
    20    17    18  ar
    21    18    19  ar
    22    20    21   1
    23    20    22   1
    24    22    23   1
    25    23    24   1
    26    23    29  am
    27    24    25   1
    28    25    26   1
    29    25    27   1
    30    27    28   1
    31    29    30   2
    32    29    31   2
    33    29    32   1
    34    32    33  ar
    35    32    35  ar
    36    33    34  ar
    37    34    40  ar
    38    35    36  ar
    39    36    37   1
    40    36    40  ar
    41    37    38   1
    42    38    39   2
    43    39    40   1
    44     3    41   1
    45     4    42   1
    46     5    43   1
    47     5    44   1
    48     6    45   1
    49     6    46   1
    50     7    47   1
    51     7    48   1
    52    11    49   1
    53    12    50   1
    54    13    51   1
    55    13    52   1
    56    15    53   1
    57    16    54   1
    58    17    55   1
    59    18    56   1
    60    19    57   1
    61    20    58   1
    62    21    59   1
    63    22    60   1
    64    22    61   1
    65    24    62   1
    66    24    63   1
    67    25    64   1
    68    26    65   1
    69    26    66   1
    70    26    67   1
    71    27    68   1
    72    27    69   1
    73    28    70   1
    74    28    71   1
    75    28    72   1
    76    33    73   1
    77    34    74   1
    78    35    75   1
    79    38    76   1
@<TRIPOS>SUBSTRUCTURE
     1  MOL      2

