@<TRIPOS>MOLECULE
4djr_ligand_088
    76    79
SMALL
GAST_HUCK
****
This file was generated by PARSER (from files_GN.cpp)

@<TRIPOS>ATOM
      1 O28        13.6415   31.0115   16.3807 O.2         1 MOL      -0.3971
      2 C27        14.5725   31.7773   16.5676 C.2         1 MOL       0.1764
      3 N29        14.4508   32.8904   17.2471 N.am        1 MOL      -0.2812
      4 C24        15.6482   33.6295   17.3787 C.3         1 MOL       0.0716
      5 C25        16.6770   32.7760   16.5870 C.3         1 MOL      -0.0105
      6 C26        15.8995   31.5408   16.0856 C.3         1 MOL       0.0394
      7 C22        15.4853   35.0995   16.8853 C.3         1 MOL       0.1003
      8 O23        16.7386   35.7981   16.8551 O.3         1 MOL      -0.2616
      9 C21        17.6170   35.9869   17.8703 C.2         1 MOL       0.3200
     10 O22        17.3466   35.5316   19.1184 O.2         1 MOL      -0.3775
     11 N20        18.8512   36.4109   17.5191 N.am        1 MOL      -0.2550
     12 C19        20.0697   36.1769   18.2563 C.3         1 MOL       0.0807
     13 C32        20.1385   37.0082   19.5831 C.3         1 MOL       0.0064
     14 C38        21.4883   37.5769   19.8693 C.ar        1 MOL      -0.0408
     15 C37        21.7787   38.9254   19.5485 C.ar        1 MOL      -0.0603
     16 C36        23.0585   39.4643   19.7835 C.ar        1 MOL      -0.0686
     17 C35        24.0698   38.6570   20.3318 C.ar        1 MOL      -0.0687
     18 C34        23.7910   37.3250   20.6842 C.ar        1 MOL      -0.0686
     19 C33        22.5062   36.7953   20.4662 C.ar        1 MOL      -0.0603
     20 C17        20.2797   34.6297   18.4253 C.3         1 MOL       0.0967
     21 O18        21.4063   34.2935   19.2374 O.3         1 MOL      -0.3877
     22 C16        20.3079   33.8037   17.0938 C.3         1 MOL       0.0579
     23 N11        21.5723   33.3089   16.5591 N.am        1 MOL      -0.2317
     24 C12        22.8194   34.0688   16.5604 C.3         1 MOL       0.0322
     25 C13        22.9216   35.4731   15.8396 C.3         1 MOL      -0.0270
     26 C14        21.6688   35.8922   15.0203 C.3         1 MOL      -0.0610
     27 C15        23.5049   36.5882   16.7890 C.3         1 MOL      -0.0518
     28 C18        22.9188   38.0151   16.6933 C.3         1 MOL      -0.0650
     29 S8         21.5766   31.6732   16.0788 S.o2        1 MOL       0.0679
     30 O10        21.2566   30.8092   17.3775 O.2         1 MOL      -0.1506
     31 O9         23.0064   31.1636   15.5867 O.2         1 MOL      -0.1506
     32 C5         20.4637   31.2729   14.7883 C.ar        1 MOL       0.1007
     33 C6         20.1927   32.2448   13.7922 C.ar        1 MOL      -0.0433
     34 C7         19.2700   31.9919   12.7572 C.ar        1 MOL      -0.0517
     35 C4         19.8399   30.0103   14.7100 C.ar        1 MOL      -0.0206
     36 C3         18.9420   29.7625   13.6527 C.ar        1 MOL       0.0595
     37 S1         18.0337   28.3683   13.2374 S.3         1 MOL       0.0026
     38 C1         17.3035   29.0960   11.8548 C.2         1 MOL       0.0809
     39 N1         17.7598   30.3599   11.7272 N.2         1 MOL      -0.2931
     40 C2         18.6451   30.7380   12.6863 C.ar        1 MOL       0.0375
     41 H1         13.6201   33.1610   17.6700 H           1 MOL       0.1855
     42 H2         15.9119   33.6363   18.4396 H           1 MOL       0.0584
     43 H3         17.4894   32.4628   17.2473 H           1 MOL       0.0313
     44 H4         17.1040   33.3214   15.7405 H           1 MOL       0.0313
     45 H5         15.9038   31.4809   14.9936 H           1 MOL       0.0503
     46 H6         16.3016   30.6158   16.5096 H           1 MOL       0.0503
     47 H7         14.7730   35.6350   17.5219 H           1 MOL       0.0634
     48 H8         15.0981   35.0995   15.8627 H           1 MOL       0.0634
     49 H9         18.9611   36.7006   16.5929 H           1 MOL       0.1873
     50 H10        20.8591   36.5610   17.5920 H           1 MOL       0.0604
     51 H11        19.8135   36.3915   20.4283 H           1 MOL       0.0449
     52 H12        19.4231   37.8361   19.5161 H           1 MOL       0.0449
     53 H13        21.0594   39.5297   19.1448 H           1 MOL       0.0557
     54 H14        23.2581   40.4381   19.5484 H           1 MOL       0.0599
     55 H15        25.0063   39.0387   20.4808 H           1 MOL       0.0559
     56 H16        24.5205   36.7418   21.0967 H           1 MOL       0.0599
     57 H17        22.3182   35.8344   20.7530 H           1 MOL       0.0557
     58 H18        19.4230   34.2818   19.0119 H           1 MOL       0.0634
     59 H19        21.2195   33.3714   19.5274 H           1 MOL       0.2100
     60 H20        19.8089   34.3571   16.2984 H           1 MOL       0.0504
     61 H21        19.6497   32.9518   17.2902 H           1 MOL       0.0504
     62 H22        23.6258   33.4544   16.1465 H           1 MOL       0.0481
     63 H23        23.1184   34.1595   17.6027 H           1 MOL       0.0481
     64 H24        23.6822   35.3458   15.0614 H           1 MOL       0.0314
     65 H25        21.8640   36.7838   14.4230 H           1 MOL       0.0233
     66 H26        20.8182   36.1007   15.6675 H           1 MOL       0.0233
     67 H27        21.4029   35.1020   14.3226 H           1 MOL       0.0233
     68 H28        24.5782   36.6654   16.6029 H           1 MOL       0.0266
     69 H29        23.4060   36.2999   17.8347 H           1 MOL       0.0266
     70 H30        23.4685   38.6875   17.3604 H           1 MOL       0.0230
     71 H31        21.8643   37.9856   16.9981 H           1 MOL       0.0230
     72 H32        23.0033   38.4069   15.6788 H           1 MOL       0.0230
     73 H33        20.6739   33.1382   13.8065 H           1 MOL       0.0580
     74 H34        19.0731   32.7151   12.0660 H           1 MOL       0.0584
     75 H35        20.0305   29.2747   15.3920 H           1 MOL       0.0592
     76 H36        16.6392   28.6424   11.2302 H           1 MOL       0.1260
@<TRIPOS>BOND
     1     1     2   2
     2     2     3  am
     3     2     6   1
     4     3     4   1
     5     4     5   1
     6     4     7   1
     7     5     6   1
     8     7     8   1
     9     8     9   1
    10     9    10   2
    11     9    11  am
    12    11    12   1
    13    12    13   1
    14    12    20   1
    15    13    14   1
    16    14    15  ar
    17    14    19  ar
    18    15    16  ar
    19    16    17  ar
    20    17    18  ar
    21    18    19  ar
    22    20    21   1
    23    20    22   1
    24    22    23   1
    25    23    24   1
    26    23    29  am
    27    24    25   1
    28    25    26   1
    29    25    27   1
    30    27    28   1
    31    29    30   2
    32    29    31   2
    33    29    32   1
    34    32    33  ar
    35    32    35  ar
    36    33    34  ar
    37    34    40  ar
    38    35    36  ar
    39    36    37   1
    40    36    40  ar
    41    37    38   1
    42    38    39   2
    43    39    40   1
    44     3    41   1
    45     4    42   1
    46     5    43   1
    47     5    44   1
    48     6    45   1
    49     6    46   1
    50     7    47   1
    51     7    48   1
    52    11    49   1
    53    12    50   1
    54    13    51   1
    55    13    52   1
    56    15    53   1
    57    16    54   1
    58    17    55   1
    59    18    56   1
    60    19    57   1
    61    20    58   1
    62    21    59   1
    63    22    60   1
    64    22    61   1
    65    24    62   1
    66    24    63   1
    67    25    64   1
    68    26    65   1
    69    26    66   1
    70    26    67   1
    71    27    68   1
    72    27    69   1
    73    28    70   1
    74    28    71   1
    75    28    72   1
    76    33    73   1
    77    34    74   1
    78    35    75   1
    79    38    76   1
@<TRIPOS>SUBSTRUCTURE
     1  MOL      2

