@<TRIPOS>MOLECULE
4djr_ligand_043
    76    79
SMALL
GAST_HUCK
****
This file was generated by PARSER (from files_GN.cpp)

@<TRIPOS>ATOM
      1 O28        20.1300   27.9188   14.7915 O.2         1 MOL      -0.3971
      2 C27        20.5025   28.9712   15.2919 C.2         1 MOL       0.1764
      3 N29        19.9702   29.4706   16.3819 N.am        1 MOL      -0.2812
      4 C24        20.5216   30.7215   16.7857 C.3         1 MOL       0.0716
      5 C25        21.6384   30.9644   15.7317 C.3         1 MOL      -0.0105
      6 C26        21.5404   29.7852   14.7389 C.3         1 MOL       0.0394
      7 C22        19.4212   31.8141   16.8549 C.3         1 MOL       0.1003
      8 O23        19.9475   33.1193   17.1726 O.3         1 MOL      -0.2616
      9 C21        19.5760   34.0475   18.0903 C.2         1 MOL       0.3200
     10 O22        18.5761   33.8240   18.9932 O.2         1 MOL      -0.3775
     11 N20        20.1222   35.2763   17.9742 N.am        1 MOL      -0.2550
     12 C19        19.6633   36.4352   18.6898 C.3         1 MOL       0.0807
     13 C32        20.9131   37.1777   19.2614 C.3         1 MOL       0.0064
     14 C38        21.8845   36.4316   20.1196 C.ar        1 MOL      -0.0408
     15 C37        21.5238   35.3434   20.9507 C.ar        1 MOL      -0.0603
     16 C36        22.4883   34.6837   21.7400 C.ar        1 MOL      -0.0686
     17 C35        23.8261   35.1209   21.7308 C.ar        1 MOL      -0.0687
     18 C34        24.1949   36.2159   20.9338 C.ar        1 MOL      -0.0686
     19 C33        23.2337   36.8680   20.1415 C.ar        1 MOL      -0.0603
     20 C17        18.8004   37.4008   17.8013 C.3         1 MOL       0.0967
     21 O18        18.2313   38.4045   18.6482 O.3         1 MOL      -0.3877
     22 C16        17.7092   36.8242   16.8300 C.3         1 MOL       0.0579
     23 N11        16.6500   35.9446   17.3048 N.am        1 MOL      -0.2317
     24 C12        16.7711   34.4835   17.1487 C.3         1 MOL       0.0322
     25 C13        15.6232   33.6109   16.5287 C.3         1 MOL      -0.0270
     26 C14        14.5811   33.1274   17.5785 C.3         1 MOL      -0.0610
     27 C15        14.9587   34.1995   15.2481 C.3         1 MOL      -0.0518
     28 C18        15.9349   34.8581   14.2430 C.3         1 MOL      -0.0650
     29 S8         15.3269   36.6301   18.1296 S.o2        1 MOL       0.0679
     30 O10        15.0348   35.7640   19.4322 O.2         1 MOL      -0.1506
     31 O9         14.0070   36.5499   17.2506 O.2         1 MOL      -0.1506
     32 C5         15.3467   38.3197   18.6013 C.ar        1 MOL       0.1007
     33 C6         15.3919   39.3231   17.6001 C.ar        1 MOL      -0.0433
     34 C7         15.3866   40.6916   17.9339 C.ar        1 MOL      -0.0517
     35 C4         15.2481   38.7110   19.9609 C.ar        1 MOL      -0.0206
     36 C3         15.2493   40.0819   20.2792 C.ar        1 MOL       0.0595
     37 S1         15.1823   40.8985   21.7847 S.3         1 MOL       0.0026
     38 C1         15.2401   42.4677   21.0836 C.2         1 MOL       0.0809
     39 N1         15.3050   42.3509   19.7391 N.2         1 MOL      -0.2931
     40 C2         15.3188   41.0735   19.2851 C.ar        1 MOL       0.0375
     41 H1         19.2458   29.0199   16.8583 H           1 MOL       0.1855
     42 H2         20.9617   30.6035   17.7801 H           1 MOL       0.0584
     43 H3         22.6168   30.9618   16.2191 H           1 MOL       0.0313
     44 H4         21.5133   31.9177   15.2097 H           1 MOL       0.0313
     45 H5         21.2583   30.1295   13.7414 H           1 MOL       0.0503
     46 H6         22.4794   29.2264   14.6885 H           1 MOL       0.0503
     47 H7         18.6647   31.5282   17.5845 H           1 MOL       0.0634
     48 H8         18.9310   31.8866   15.8797 H           1 MOL       0.0634
     49 H9         20.7959   35.3993   17.2829 H           1 MOL       0.1873
     50 H10        19.0281   36.1557   19.5334 H           1 MOL       0.0604
     51 H11        20.5771   38.0337   19.8490 H           1 MOL       0.0449
     52 H12        21.4564   37.5717   18.3954 H           1 MOL       0.0449
     53 H13        20.5582   35.0231   21.0087 H           1 MOL       0.0557
     54 H14        22.2122   33.8980   22.3351 H           1 MOL       0.0599
     55 H15        24.5271   34.6467   22.3076 H           1 MOL       0.0559
     56 H16        25.1648   36.5489   20.9377 H           1 MOL       0.0599
     57 H17        23.5272   37.6727   19.5807 H           1 MOL       0.0557
     58 H18        19.4943   37.9476   17.1542 H           1 MOL       0.0634
     59 H19        18.0915   37.9755   19.5188 H           1 MOL       0.2100
     60 H20        18.2632   36.3161   16.0406 H           1 MOL       0.0504
     61 H21        17.2589   37.6807   16.3106 H           1 MOL       0.0504
     62 H22        17.0204   34.0233   18.1021 H           1 MOL       0.0481
     63 H23        17.6433   34.2712   16.5304 H           1 MOL       0.0481
     64 H24        16.1073   32.6796   16.2087 H           1 MOL       0.0314
     65 H25        13.9835   32.3076   17.1641 H           1 MOL       0.0233
     66 H26        13.8966   33.9173   17.8756 H           1 MOL       0.0233
     67 H27        15.0801   32.7421   18.4689 H           1 MOL       0.0233
     68 H28        14.2113   34.9453   15.5288 H           1 MOL       0.0266
     69 H29        14.4389   33.3931   14.7154 H           1 MOL       0.0266
     70 H30        15.3905   35.1633   13.3454 H           1 MOL       0.0230
     71 H31        16.7177   34.1547   13.9487 H           1 MOL       0.0230
     72 H32        16.3984   35.7433   14.6716 H           1 MOL       0.0230
     73 H33        15.4400   39.0646   16.6112 H           1 MOL       0.0580
     74 H34        15.4359   41.4047   17.2019 H           1 MOL       0.0584
     75 H35        15.1883   38.0248   20.7152 H           1 MOL       0.0592
     76 H36        15.2280   43.3463   21.5998 H           1 MOL       0.1260
@<TRIPOS>BOND
     1     1     2   2
     2     2     3  am
     3     2     6   1
     4     3     4   1
     5     4     5   1
     6     4     7   1
     7     5     6   1
     8     7     8   1
     9     8     9   1
    10     9    10   2
    11     9    11  am
    12    11    12   1
    13    12    13   1
    14    12    20   1
    15    13    14   1
    16    14    15  ar
    17    14    19  ar
    18    15    16  ar
    19    16    17  ar
    20    17    18  ar
    21    18    19  ar
    22    20    21   1
    23    20    22   1
    24    22    23   1
    25    23    24   1
    26    23    29  am
    27    24    25   1
    28    25    26   1
    29    25    27   1
    30    27    28   1
    31    29    30   2
    32    29    31   2
    33    29    32   1
    34    32    33  ar
    35    32    35  ar
    36    33    34  ar
    37    34    40  ar
    38    35    36  ar
    39    36    37   1
    40    36    40  ar
    41    37    38   1
    42    38    39   2
    43    39    40   1
    44     3    41   1
    45     4    42   1
    46     5    43   1
    47     5    44   1
    48     6    45   1
    49     6    46   1
    50     7    47   1
    51     7    48   1
    52    11    49   1
    53    12    50   1
    54    13    51   1
    55    13    52   1
    56    15    53   1
    57    16    54   1
    58    17    55   1
    59    18    56   1
    60    19    57   1
    61    20    58   1
    62    21    59   1
    63    22    60   1
    64    22    61   1
    65    24    62   1
    66    24    63   1
    67    25    64   1
    68    26    65   1
    69    26    66   1
    70    26    67   1
    71    27    68   1
    72    27    69   1
    73    28    70   1
    74    28    71   1
    75    28    72   1
    76    33    73   1
    77    34    74   1
    78    35    75   1
    79    38    76   1
@<TRIPOS>SUBSTRUCTURE
     1  MOL      2

