@<TRIPOS>MOLECULE
4djr_ligand_049
    76    79
SMALL
GAST_HUCK
****
This file was generated by PARSER (from files_GN.cpp)

@<TRIPOS>ATOM
      1 O28        24.0271   25.4806    5.8157 O.2         1 MOL      -0.3971
      2 C27        23.4335   24.7077    6.5506 C.2         1 MOL       0.1764
      3 N29        22.4397   25.0769    7.3186 N.am        1 MOL      -0.2812
      4 C24        21.9169   24.0429    8.1355 C.3         1 MOL       0.0716
      5 C25        22.7427   22.7994    7.7048 C.3         1 MOL      -0.0105
      6 C26        23.7772   23.3250    6.6859 C.3         1 MOL       0.0394
      7 C22        22.0370   24.4140    9.6341 C.3         1 MOL       0.1003
      8 O23        21.1243   25.4762    9.9311 O.3         1 MOL      -0.2616
      9 C21        21.0613   26.2019   11.0725 C.2         1 MOL       0.3200
     10 O22        21.9242   25.9618   12.0879 O.2         1 MOL      -0.3775
     11 N20        20.1925   27.2428   11.0923 N.am        1 MOL      -0.2550
     12 C19        20.1559   28.2888   12.0758 C.3         1 MOL       0.0807
     13 C32        21.2427   29.3338   11.6681 C.3         1 MOL       0.0064
     14 C38        22.5866   28.7789   11.3470 C.ar        1 MOL      -0.0408
     15 C37        23.3854   28.2038   12.3610 C.ar        1 MOL      -0.0603
     16 C36        24.6557   27.6771   12.0598 C.ar        1 MOL      -0.0686
     17 C35        25.1324   27.6997   10.7362 C.ar        1 MOL      -0.0687
     18 C34        24.3476   28.2670    9.7183 C.ar        1 MOL      -0.0686
     19 C33        23.0926   28.8225   10.0256 C.ar        1 MOL      -0.0603
     20 C17        18.7012   28.8800   12.1634 C.3         1 MOL       0.0967
     21 O18        18.3694   29.5478   10.9422 O.3         1 MOL      -0.3877
     22 C16        18.3358   29.7794   13.3981 C.3         1 MOL       0.0579
     23 N11        19.3665   30.6244   13.9790 N.am        1 MOL      -0.2317
     24 C12        20.3129   30.0659   14.9298 C.3         1 MOL       0.0322
     25 C13        20.1551   30.3644   16.4697 C.3         1 MOL      -0.0270
     26 C14        21.2092   31.3753   17.0080 C.3         1 MOL      -0.0610
     27 C15        18.6977   30.6388   16.9802 C.3         1 MOL      -0.0518
     28 C18        18.2352   32.1097   17.1028 C.3         1 MOL      -0.0650
     29 S8         19.5067   32.2312   13.4275 S.o2        1 MOL       0.0679
     30 O10        18.1366   33.0051   13.6670 O.2         1 MOL      -0.1506
     31 O9         19.6904   32.2650   11.8475 O.2         1 MOL      -0.1506
     32 C5         20.8508   33.1768   14.0380 C.ar        1 MOL       0.1007
     33 C6         22.1827   32.7876   13.7510 C.ar        1 MOL      -0.0433
     34 C7         23.2818   33.4867   14.2969 C.ar        1 MOL      -0.0517
     35 C4         20.6239   34.3243   14.8374 C.ar        1 MOL      -0.0206
     36 C3         21.7277   34.9956   15.3826 C.ar        1 MOL       0.0595
     37 S1         21.8152   36.3485   16.4327 S.3         1 MOL       0.0026
     38 C1         23.5336   36.3264   16.5219 C.2         1 MOL       0.0809
     39 N1         24.0049   35.3152   15.7601 N.2         1 MOL      -0.2931
     40 C2         23.0457   34.5854   15.1353 C.ar        1 MOL       0.0375
     41 H1         22.1055   25.9901    7.3463 H           1 MOL       0.1855
     42 H2         20.8614   23.8962    7.8855 H           1 MOL       0.0584
     43 H3         22.0908   22.0570    7.2342 H           1 MOL       0.0313
     44 H4         23.2471   22.3241    8.5494 H           1 MOL       0.0313
     45 H5         24.7971   23.2251    7.0661 H           1 MOL       0.0503
     46 H6         23.6897   22.8105    5.7256 H           1 MOL       0.0503
     47 H7         23.0568   24.7407    9.8458 H           1 MOL       0.0634
     48 H8         21.8108   23.5469   10.2593 H           1 MOL       0.0634
     49 H9         19.6875   27.3953   10.2752 H           1 MOL       0.1873
     50 H10        20.3993   27.8824   13.0625 H           1 MOL       0.0604
     51 H11        21.3901   30.0402   12.4752 H           1 MOL       0.0449
     52 H12        20.8674   29.9034   10.8156 H           1 MOL       0.0449
     53 H13        23.0526   28.1780   13.3283 H           1 MOL       0.0557
     54 H14        25.2322   27.2775   12.8033 H           1 MOL       0.0599
     55 H15        26.0494   27.3058   10.5163 H           1 MOL       0.0559
     56 H16        24.6894   28.2890    8.7546 H           1 MOL       0.0599
     57 H17        22.5473   29.2475    9.2743 H           1 MOL       0.0557
     58 H18        18.0143   28.0294   12.2164 H           1 MOL       0.0634
     59 H19        17.4042   29.7261   10.9850 H           1 MOL       0.2100
     60 H20        17.9492   29.1097   14.1732 H           1 MOL       0.0504
     61 H21        17.4798   30.4076   13.1251 H           1 MOL       0.0504
     62 H22        21.3217   30.3183   14.6058 H           1 MOL       0.0481
     63 H23        20.2857   28.9755   14.8272 H           1 MOL       0.0481
     64 H24        20.4416   29.4247   16.9626 H           1 MOL       0.0314
     65 H25        21.2362   31.3474   18.0985 H           1 MOL       0.0233
     66 H26        20.9777   32.3906   16.6970 H           1 MOL       0.0233
     67 H27        22.2111   31.1232   16.6484 H           1 MOL       0.0233
     68 H28        18.5923   30.1985   17.9715 H           1 MOL       0.0266
     69 H29        17.9857   30.1117   16.3431 H           1 MOL       0.0266
     70 H30        17.1706   32.1461   17.3398 H           1 MOL       0.0230
     71 H31        18.3934   32.6476   16.1752 H           1 MOL       0.0230
     72 H32        18.7740   32.6246   17.8962 H           1 MOL       0.0230
     73 H33        22.3744   31.9846   13.1504 H           1 MOL       0.0580
     74 H34        24.2360   33.1864   14.0896 H           1 MOL       0.0584
     75 H35        19.6830   34.6488   15.0550 H           1 MOL       0.0592
     76 H36        24.1046   36.9759   17.0631 H           1 MOL       0.1260
@<TRIPOS>BOND
     1     1     2   2
     2     2     3  am
     3     2     6   1
     4     3     4   1
     5     4     5   1
     6     4     7   1
     7     5     6   1
     8     7     8   1
     9     8     9   1
    10     9    10   2
    11     9    11  am
    12    11    12   1
    13    12    13   1
    14    12    20   1
    15    13    14   1
    16    14    15  ar
    17    14    19  ar
    18    15    16  ar
    19    16    17  ar
    20    17    18  ar
    21    18    19  ar
    22    20    21   1
    23    20    22   1
    24    22    23   1
    25    23    24   1
    26    23    29  am
    27    24    25   1
    28    25    26   1
    29    25    27   1
    30    27    28   1
    31    29    30   2
    32    29    31   2
    33    29    32   1
    34    32    33  ar
    35    32    35  ar
    36    33    34  ar
    37    34    40  ar
    38    35    36  ar
    39    36    37   1
    40    36    40  ar
    41    37    38   1
    42    38    39   2
    43    39    40   1
    44     3    41   1
    45     4    42   1
    46     5    43   1
    47     5    44   1
    48     6    45   1
    49     6    46   1
    50     7    47   1
    51     7    48   1
    52    11    49   1
    53    12    50   1
    54    13    51   1
    55    13    52   1
    56    15    53   1
    57    16    54   1
    58    17    55   1
    59    18    56   1
    60    19    57   1
    61    20    58   1
    62    21    59   1
    63    22    60   1
    64    22    61   1
    65    24    62   1
    66    24    63   1
    67    25    64   1
    68    26    65   1
    69    26    66   1
    70    26    67   1
    71    27    68   1
    72    27    69   1
    73    28    70   1
    74    28    71   1
    75    28    72   1
    76    33    73   1
    77    34    74   1
    78    35    75   1
    79    38    76   1
@<TRIPOS>SUBSTRUCTURE
     1  MOL      2

