@<TRIPOS>MOLECULE
4djr_ligand_091
    76    79
SMALL
GAST_HUCK
****
This file was generated by PARSER (from files_GN.cpp)

@<TRIPOS>ATOM
      1 O28        23.8192   30.5924   13.5262 O.2         1 MOL      -0.3971
      2 C27        23.2417   31.6172   13.8571 C.2         1 MOL       0.1764
      3 N29        23.8244   32.7879   13.8735 N.am        1 MOL      -0.2812
      4 C24        22.9711   33.8528   14.2501 C.3         1 MOL       0.0716
      5 C25        21.6301   33.1409   14.5824 C.3         1 MOL      -0.0105
      6 C26        21.8603   31.6567   14.2277 C.3         1 MOL       0.0394
      7 C22        23.5711   34.6632   15.4264 C.3         1 MOL       0.1003
      8 O23        22.7019   35.7544   15.7578 O.3         1 MOL      -0.2616
      9 C21        21.9757   35.9349   16.8948 C.2         1 MOL       0.3200
     10 O22        22.0006   35.0125   17.8835 O.2         1 MOL      -0.3775
     11 N20        21.2126   37.0485   16.9673 N.am        1 MOL      -0.2550
     12 C19        20.3209   37.3948   18.0395 C.3         1 MOL       0.0807
     13 C32        20.9116   38.6197   18.8226 C.3         1 MOL       0.0064
     14 C38        22.1672   38.3794   19.6046 C.ar        1 MOL      -0.0408
     15 C37        23.1572   39.3911   19.6935 C.ar        1 MOL      -0.0603
     16 C36        24.3082   39.2153   20.4913 C.ar        1 MOL      -0.0686
     17 C35        24.4957   38.0179   21.2061 C.ar        1 MOL      -0.0687
     18 C34        23.5172   37.0131   21.1475 C.ar        1 MOL      -0.0686
     19 C33        22.3533   37.2071   20.3819 C.ar        1 MOL      -0.0603
     20 C17        18.8704   37.5795   17.4691 C.3         1 MOL       0.0967
     21 O18        18.0883   38.3156   18.4098 O.3         1 MOL      -0.3877
     22 C16        18.2034   36.1985   17.1115 C.3         1 MOL       0.0579
     23 N11        16.7576   36.1759   16.9907 N.am        1 MOL      -0.2317
     24 C12        16.1066   36.0832   15.6999 C.3         1 MOL       0.0322
     25 C13        16.0343   34.6737   15.0006 C.3         1 MOL      -0.0270
     26 C14        17.2009   34.4203   14.0042 C.3         1 MOL      -0.0610
     27 C15        15.8529   33.4868   15.9991 C.3         1 MOL      -0.0518
     28 C18        15.4290   32.1289   15.3903 C.3         1 MOL      -0.0650
     29 S8         15.8239   36.2233   18.4136 S.o2        1 MOL       0.0679
     30 O10        16.5666   35.3778   19.5338 O.2         1 MOL      -0.1506
     31 O9         14.4418   35.4408   18.3002 O.2         1 MOL      -0.1506
     32 C5         15.3312   37.7772   19.0195 C.ar        1 MOL       0.1007
     33 C6         14.8474   38.7578   18.1208 C.ar        1 MOL      -0.0433
     34 C7         14.3908   40.0032   18.5938 C.ar        1 MOL      -0.0517
     35 C4         15.3684   38.0521   20.4053 C.ar        1 MOL      -0.0206
     36 C3         14.9276   39.3015   20.8544 C.ar        1 MOL       0.0595
     37 S1         14.8495   39.9650   22.4350 S.3         1 MOL       0.0026
     38 C1         14.1744   41.4568   21.9083 C.2         1 MOL       0.0809
     39 N1         14.0093   41.4204   20.5663 N.2         1 MOL      -0.2931
     40 C2         14.4301   40.2761   19.9751 C.ar        1 MOL       0.0375
     41 H1         24.7545   32.9203   13.6191 H           1 MOL       0.1855
     42 H2         22.8412   34.5083   13.3851 H           1 MOL       0.0584
     43 H3         20.8117   33.5600   13.9914 H           1 MOL       0.0313
     44 H4         21.3695   33.2308   15.6410 H           1 MOL       0.0313
     45 H5         21.6761   31.0068   15.0879 H           1 MOL       0.0503
     46 H6         21.2334   31.3465   13.3883 H           1 MOL       0.0503
     47 H7         24.5323   35.0804   15.1310 H           1 MOL       0.0634
     48 H8         23.7409   34.0032   16.2828 H           1 MOL       0.0634
     49 H9         21.2767   37.6709   16.2266 H           1 MOL       0.1873
     50 H10        20.2395   36.5770   18.7613 H           1 MOL       0.0604
     51 H11        20.1813   38.9671   19.5531 H           1 MOL       0.0449
     52 H12        21.0524   39.4382   18.1121 H           1 MOL       0.0449
     53 H13        23.0368   40.2832   19.2015 H           1 MOL       0.0557
     54 H14        25.0074   39.9635   20.5578 H           1 MOL       0.0599
     55 H15        25.3311   37.8876   21.7837 H           1 MOL       0.0559
     56 H16        23.6411   36.1494   21.6790 H           1 MOL       0.0599
     57 H17        21.6415   36.4792   20.4212 H           1 MOL       0.0557
     58 H18        18.9043   38.1908   16.5614 H           1 MOL       0.0634
     59 H19        18.1498   37.8363   19.2654 H           1 MOL       0.2100
     60 H20        18.4794   35.4495   17.8570 H           1 MOL       0.0504
     61 H21        18.6663   35.8501   16.1858 H           1 MOL       0.0504
     62 H22        16.5782   36.8083   15.0287 H           1 MOL       0.0481
     63 H23        15.0803   36.4388   15.8099 H           1 MOL       0.0481
     64 H24        15.1340   34.6997   14.3751 H           1 MOL       0.0314
     65 H25        16.9703   33.5640   13.3623 H           1 MOL       0.0233
     66 H26        18.1348   34.2096   14.5314 H           1 MOL       0.0233
     67 H27        17.3509   35.2823   13.3499 H           1 MOL       0.0233
     68 H28        15.0495   33.7439   16.6928 H           1 MOL       0.0266
     69 H29        16.7690   33.3499   16.5774 H           1 MOL       0.0266
     70 H30        15.2252   31.4217   16.2014 H           1 MOL       0.0230
     71 H31        16.2129   31.7123   14.7591 H           1 MOL       0.0230
     72 H32        14.5142   32.2458   14.8062 H           1 MOL       0.0230
     73 H33        14.8207   38.5696   17.1178 H           1 MOL       0.0580
     74 H34        14.0380   40.7045   17.9388 H           1 MOL       0.0584
     75 H35        15.6931   37.3607   21.0783 H           1 MOL       0.0592
     76 H36        13.9217   42.2380   22.5112 H           1 MOL       0.1260
@<TRIPOS>BOND
     1     1     2   2
     2     2     3  am
     3     2     6   1
     4     3     4   1
     5     4     5   1
     6     4     7   1
     7     5     6   1
     8     7     8   1
     9     8     9   1
    10     9    10   2
    11     9    11  am
    12    11    12   1
    13    12    13   1
    14    12    20   1
    15    13    14   1
    16    14    15  ar
    17    14    19  ar
    18    15    16  ar
    19    16    17  ar
    20    17    18  ar
    21    18    19  ar
    22    20    21   1
    23    20    22   1
    24    22    23   1
    25    23    24   1
    26    23    29  am
    27    24    25   1
    28    25    26   1
    29    25    27   1
    30    27    28   1
    31    29    30   2
    32    29    31   2
    33    29    32   1
    34    32    33  ar
    35    32    35  ar
    36    33    34  ar
    37    34    40  ar
    38    35    36  ar
    39    36    37   1
    40    36    40  ar
    41    37    38   1
    42    38    39   2
    43    39    40   1
    44     3    41   1
    45     4    42   1
    46     5    43   1
    47     5    44   1
    48     6    45   1
    49     6    46   1
    50     7    47   1
    51     7    48   1
    52    11    49   1
    53    12    50   1
    54    13    51   1
    55    13    52   1
    56    15    53   1
    57    16    54   1
    58    17    55   1
    59    18    56   1
    60    19    57   1
    61    20    58   1
    62    21    59   1
    63    22    60   1
    64    22    61   1
    65    24    62   1
    66    24    63   1
    67    25    64   1
    68    26    65   1
    69    26    66   1
    70    26    67   1
    71    27    68   1
    72    27    69   1
    73    28    70   1
    74    28    71   1
    75    28    72   1
    76    33    73   1
    77    34    74   1
    78    35    75   1
    79    38    76   1
@<TRIPOS>SUBSTRUCTURE
     1  MOL      2

