@<TRIPOS>MOLECULE
4djr_ligand_054
    76    79
SMALL
GAST_HUCK
****
This file was generated by PARSER (from files_GN.cpp)

@<TRIPOS>ATOM
      1 O28        25.0299   38.1420   24.0553 O.2         1 MOL      -0.3971
      2 C27        25.4700   37.5044   23.1077 C.2         1 MOL       0.1764
      3 N29        24.6759   36.9074   22.2624 N.am        1 MOL      -0.2812
      4 C24        25.3188   36.2617   21.1805 C.3         1 MOL       0.0716
      5 C25        26.8215   36.4615   21.5224 C.3         1 MOL      -0.0105
      6 C26        26.8433   37.4043   22.7481 C.3         1 MOL       0.0394
      7 C22        24.8504   34.7792   21.0077 C.3         1 MOL       0.1003
      8 O23        23.6207   34.6410   20.2742 O.3         1 MOL      -0.2616
      9 C21        22.4732   35.3479   20.3967 C.2         1 MOL       0.3200
     10 O22        22.4066   36.3794   21.2787 O.2         1 MOL      -0.3775
     11 N20        21.4817   35.1699   19.5165 N.am        1 MOL      -0.2550
     12 C19        20.3664   36.0705   19.3340 C.3         1 MOL       0.0807
     13 C32        20.8255   37.5006   18.8744 C.3         1 MOL       0.0064
     14 C38        21.0721   37.6926   17.4219 C.ar        1 MOL      -0.0408
     15 C37        20.5676   38.8314   16.7354 C.ar        1 MOL      -0.0603
     16 C36        20.7529   38.9860   15.3573 C.ar        1 MOL      -0.0686
     17 C35        21.3979   37.9746   14.6125 C.ar        1 MOL      -0.0687
     18 C34        21.9094   36.8471   15.2762 C.ar        1 MOL      -0.0686
     19 C33        21.7958   36.7328   16.6717 C.ar        1 MOL      -0.0603
     20 C17        19.2053   35.4338   18.4940 C.3         1 MOL       0.0967
     21 O18        18.5758   34.4313   19.2835 O.3         1 MOL      -0.3877
     22 C16        19.5198   34.8547   17.0746 C.3         1 MOL       0.0579
     23 N11        18.6641   33.7813   16.6028 N.am        1 MOL      -0.2317
     24 C12        19.1543   32.4177   16.5059 C.3         1 MOL       0.0322
     25 C13        19.4328   31.8399   15.0684 C.3         1 MOL      -0.0270
     26 C14        18.1893   31.1389   14.4465 C.3         1 MOL      -0.0610
     27 C15        20.0748   32.8516   14.0586 C.3         1 MOL      -0.0518
     28 C18        21.5635   33.1736   14.3313 C.3         1 MOL      -0.0650
     29 S8         17.0686   34.1308   16.1246 S.o2        1 MOL       0.0679
     30 O10        16.1254   32.8819   16.4200 O.2         1 MOL      -0.1506
     31 O9         16.9868   34.4336   14.5631 O.2         1 MOL      -0.1506
     32 C5         16.3655   35.4897   16.9550 C.ar        1 MOL       0.1007
     33 C6         15.8302   35.3338   18.2559 C.ar        1 MOL      -0.0433
     34 C7         15.4406   36.4647   19.0117 C.ar        1 MOL      -0.0517
     35 C4         16.4785   36.7789   16.3906 C.ar        1 MOL      -0.0206
     36 C3         16.0949   37.8859   17.1641 C.ar        1 MOL       0.0595
     37 S1         16.1797   39.5604   16.8226 S.3         1 MOL       0.0026
     38 C1         15.5545   40.0290   18.3536 C.2         1 MOL       0.0809
     39 N1         15.3059   38.9238   19.0912 N.2         1 MOL      -0.2931
     40 C2         15.5881   37.7467   18.4658 C.ar        1 MOL       0.0375
     41 H1         23.7236   36.9693   22.3497 H           1 MOL       0.1855
     42 H2         25.0751   36.8172   20.2683 H           1 MOL       0.0584
     43 H3         27.3545   36.9080   20.6792 H           1 MOL       0.0313
     44 H4         27.3070   35.5174   21.7696 H           1 MOL       0.0313
     45 H5         27.4302   36.9824   23.5686 H           1 MOL       0.0503
     46 H6         27.2349   38.3914   22.4828 H           1 MOL       0.0503
     47 H7         24.7542   34.2960   21.9866 H           1 MOL       0.0634
     48 H8         25.6077   34.2291   20.4431 H           1 MOL       0.0634
     49 H9         21.5485   34.3974   18.9193 H           1 MOL       0.1873
     50 H10        19.9241   36.2244   20.3284 H           1 MOL       0.0604
     51 H11        21.7469   37.7763   19.3885 H           1 MOL       0.0449
     52 H12        20.0682   38.2118   19.2227 H           1 MOL       0.0449
     53 H13        20.0564   39.5553   17.2500 H           1 MOL       0.0557
     54 H14        20.3892   39.8135   14.8746 H           1 MOL       0.0599
     55 H15        21.5101   38.0725   13.6052 H           1 MOL       0.0559
     56 H16        22.3495   36.0938   14.7466 H           1 MOL       0.0599
     57 H17        22.1983   35.9107   17.1264 H           1 MOL       0.0557
     58 H18        18.4716   36.2280   18.3758 H           1 MOL       0.0634
     59 H19        19.1766   33.6604   19.2574 H           1 MOL       0.2100
     60 H20        20.5532   34.5093   17.0858 H           1 MOL       0.0504
     61 H21        19.4856   35.6590   16.3399 H           1 MOL       0.0504
     62 H22        18.4616   31.7593   17.0346 H           1 MOL       0.0481
     63 H23        20.0869   32.3264   17.0727 H           1 MOL       0.0481
     64 H24        20.1545   31.0248   15.2003 H           1 MOL       0.0314
     65 H25        18.4772   30.5906   13.5452 H           1 MOL       0.0233
     66 H26        17.4201   31.8544   14.1670 H           1 MOL       0.0233
     67 H27        17.7583   30.4200   15.1481 H           1 MOL       0.0233
     68 H28        19.5063   33.7828   14.0438 H           1 MOL       0.0266
     69 H29        20.0313   32.4407   13.0457 H           1 MOL       0.0266
     70 H30        21.9175   33.9181   13.6151 H           1 MOL       0.0230
     71 H31        22.1680   32.2720   14.2185 H           1 MOL       0.0230
     72 H32        21.7048   33.5648   15.3372 H           1 MOL       0.0230
     73 H33        15.7728   34.4081   18.6806 H           1 MOL       0.0580
     74 H34        15.0937   36.3405   19.9660 H           1 MOL       0.0584
     75 H35        16.8780   36.9284   15.4638 H           1 MOL       0.0592
     76 H36        15.4098   40.9923   18.6590 H           1 MOL       0.1260
@<TRIPOS>BOND
     1     1     2   2
     2     2     3  am
     3     2     6   1
     4     3     4   1
     5     4     5   1
     6     4     7   1
     7     5     6   1
     8     7     8   1
     9     8     9   1
    10     9    10   2
    11     9    11  am
    12    11    12   1
    13    12    13   1
    14    12    20   1
    15    13    14   1
    16    14    15  ar
    17    14    19  ar
    18    15    16  ar
    19    16    17  ar
    20    17    18  ar
    21    18    19  ar
    22    20    21   1
    23    20    22   1
    24    22    23   1
    25    23    24   1
    26    23    29  am
    27    24    25   1
    28    25    26   1
    29    25    27   1
    30    27    28   1
    31    29    30   2
    32    29    31   2
    33    29    32   1
    34    32    33  ar
    35    32    35  ar
    36    33    34  ar
    37    34    40  ar
    38    35    36  ar
    39    36    37   1
    40    36    40  ar
    41    37    38   1
    42    38    39   2
    43    39    40   1
    44     3    41   1
    45     4    42   1
    46     5    43   1
    47     5    44   1
    48     6    45   1
    49     6    46   1
    50     7    47   1
    51     7    48   1
    52    11    49   1
    53    12    50   1
    54    13    51   1
    55    13    52   1
    56    15    53   1
    57    16    54   1
    58    17    55   1
    59    18    56   1
    60    19    57   1
    61    20    58   1
    62    21    59   1
    63    22    60   1
    64    22    61   1
    65    24    62   1
    66    24    63   1
    67    25    64   1
    68    26    65   1
    69    26    66   1
    70    26    67   1
    71    27    68   1
    72    27    69   1
    73    28    70   1
    74    28    71   1
    75    28    72   1
    76    33    73   1
    77    34    74   1
    78    35    75   1
    79    38    76   1
@<TRIPOS>SUBSTRUCTURE
     1  MOL      2

