@<TRIPOS>MOLECULE
4djr_ligand_050
    76    79
SMALL
GAST_HUCK
****
This file was generated by PARSER (from files_GN.cpp)

@<TRIPOS>ATOM
      1 O28        15.5640   33.8584   18.3733 O.2         1 MOL      -0.3971
      2 C27        15.8689   34.5276   17.3986 C.2         1 MOL       0.1764
      3 N29        15.7730   34.0862   16.1714 N.am        1 MOL      -0.2812
      4 C24        16.1620   35.0177   15.1802 C.3         1 MOL       0.0716
      5 C25        16.5944   36.2629   16.0074 C.3         1 MOL      -0.0105
      6 C26        16.3684   35.8661   17.4841 C.3         1 MOL       0.0394
      7 C22        17.2443   34.4353   14.2318 C.3         1 MOL       0.1003
      8 O23        18.5010   34.2884   14.9111 O.3         1 MOL      -0.2616
      9 C21        19.6303   33.7312   14.4131 C.2         1 MOL       0.3200
     10 O22        19.6696   33.1630   13.1753 O.2         1 MOL      -0.3775
     11 N20        20.6944   33.7128   15.2399 N.am        1 MOL      -0.2550
     12 C19        22.0314   33.3062   14.9271 C.3         1 MOL       0.0807
     13 C32        23.0175   34.2256   15.7311 C.3         1 MOL       0.0064
     14 C38        22.6902   35.6697   15.9500 C.ar        1 MOL      -0.0408
     15 C37        21.8376   36.4085   15.0922 C.ar        1 MOL      -0.0603
     16 C36        21.5291   37.7556   15.3657 C.ar        1 MOL      -0.0686
     17 C35        22.0676   38.3885   16.5033 C.ar        1 MOL      -0.0687
     18 C34        22.9415   37.6831   17.3418 C.ar        1 MOL      -0.0686
     19 C33        23.2574   36.3420   17.0623 C.ar        1 MOL      -0.0603
     20 C17        22.2102   31.7698   15.2639 C.3         1 MOL       0.0967
     21 O18        23.5024   31.5042   15.8362 O.3         1 MOL      -0.3877
     22 C16        22.0506   30.7574   14.0694 C.3         1 MOL       0.0579
     23 N11        20.7628   30.1380   13.8019 N.am        1 MOL      -0.2317
     24 C12        19.9716   29.5423   14.8671 C.3         1 MOL       0.0322
     25 C13        18.6337   30.3088   15.1710 C.3         1 MOL      -0.0270
     26 C14        17.3919   29.6186   14.5299 C.3         1 MOL      -0.0610
     27 C15        18.3811   30.5876   16.6991 C.3         1 MOL      -0.0518
     28 C18        18.5482   32.0781   17.0757 C.3         1 MOL      -0.0650
     29 S8         20.5122   29.6310   12.1957 S.o2        1 MOL       0.0679
     30 O10        19.9504   30.8495   11.3422 O.2         1 MOL      -0.1506
     31 O9         19.3947   28.5028   12.0883 O.2         1 MOL      -0.1506
     32 C5         21.9066   28.8806   11.4543 C.ar        1 MOL       0.1007
     33 C6         22.4833   29.4187   10.2785 C.ar        1 MOL      -0.0433
     34 C7         23.5903   28.7946    9.6656 C.ar        1 MOL      -0.0517
     35 C4         22.4517   27.7058   12.0257 C.ar        1 MOL      -0.0206
     36 C3         23.5505   27.0974   11.3983 C.ar        1 MOL       0.0595
     37 S1         24.4411   25.6870   11.7923 S.3         1 MOL       0.0026
     38 C1         25.5104   25.8245   10.4537 C.2         1 MOL       0.0809
     39 N1         25.1809   26.9216    9.7369 N.2         1 MOL      -0.2931
     40 C2         24.1256   27.6232   10.2312 C.ar        1 MOL       0.0375
     41 H1         15.4283   33.2088   15.9570 H           1 MOL       0.1855
     42 H2         15.2760   35.2596   14.5834 H           1 MOL       0.0584
     43 H3         15.9806   37.1293   15.7449 H           1 MOL       0.0313
     44 H4         17.6429   36.5265   15.8481 H           1 MOL       0.0313
     45 H5         17.3039   35.8844   18.0521 H           1 MOL       0.0503
     46 H6         15.6312   36.5175   17.9657 H           1 MOL       0.0503
     47 H7         17.3640   35.1045   13.3743 H           1 MOL       0.0634
     48 H8         16.9198   33.4589   13.8594 H           1 MOL       0.0634
     49 H9         20.5493   34.0666   16.1331 H           1 MOL       0.1873
     50 H10        22.2350   33.4714   13.8661 H           1 MOL       0.0604
     51 H11        23.9997   34.1906   15.2472 H           1 MOL       0.0449
     52 H12        23.1299   33.7636   16.7192 H           1 MOL       0.0449
     53 H13        21.4512   35.9741   14.2525 H           1 MOL       0.0557
     54 H14        20.9046   38.2714   14.7431 H           1 MOL       0.0599
     55 H15        21.8226   39.3576   16.7128 H           1 MOL       0.0559
     56 H16        23.3474   38.1420   18.1613 H           1 MOL       0.0599
     57 H17        23.9013   35.8515   17.6927 H           1 MOL       0.0557
     58 H18        21.5064   31.5092   16.0601 H           1 MOL       0.0634
     59 H19        23.4138   30.6140   16.2484 H           1 MOL       0.2100
     60 H20        22.7241   29.9074   14.2380 H           1 MOL       0.0504
     61 H21        22.4358   31.2595   13.1762 H           1 MOL       0.0504
     62 H22        20.5848   29.4937   15.7679 H           1 MOL       0.0481
     63 H23        19.7576   28.4934   14.6398 H           1 MOL       0.0481
     64 H24        18.7057   31.2678   14.6566 H           1 MOL       0.0314
     65 H25        16.4927   30.2135   14.7205 H           1 MOL       0.0233
     66 H26        17.2408   28.6205   14.9516 H           1 MOL       0.0233
     67 H27        17.5022   29.5326   13.4472 H           1 MOL       0.0233
     68 H28        19.0466   29.9971   17.3318 H           1 MOL       0.0266
     69 H29        17.3651   30.3045   16.9806 H           1 MOL       0.0266
     70 H30        18.2138   32.2456   18.0986 H           1 MOL       0.0230
     71 H31        17.9442   32.7063   16.4150 H           1 MOL       0.0230
     72 H32        19.5931   32.3824   17.0007 H           1 MOL       0.0230
     73 H33        22.1062   30.2663    9.8587 H           1 MOL       0.0580
     74 H34        24.0035   29.1902    8.8168 H           1 MOL       0.0584
     75 H35        22.0579   27.2920   12.8730 H           1 MOL       0.0592
     76 H36        26.2701   25.1809   10.2351 H           1 MOL       0.1260
@<TRIPOS>BOND
     1     1     2   2
     2     2     3  am
     3     2     6   1
     4     3     4   1
     5     4     5   1
     6     4     7   1
     7     5     6   1
     8     7     8   1
     9     8     9   1
    10     9    10   2
    11     9    11  am
    12    11    12   1
    13    12    13   1
    14    12    20   1
    15    13    14   1
    16    14    15  ar
    17    14    19  ar
    18    15    16  ar
    19    16    17  ar
    20    17    18  ar
    21    18    19  ar
    22    20    21   1
    23    20    22   1
    24    22    23   1
    25    23    24   1
    26    23    29  am
    27    24    25   1
    28    25    26   1
    29    25    27   1
    30    27    28   1
    31    29    30   2
    32    29    31   2
    33    29    32   1
    34    32    33  ar
    35    32    35  ar
    36    33    34  ar
    37    34    40  ar
    38    35    36  ar
    39    36    37   1
    40    36    40  ar
    41    37    38   1
    42    38    39   2
    43    39    40   1
    44     3    41   1
    45     4    42   1
    46     5    43   1
    47     5    44   1
    48     6    45   1
    49     6    46   1
    50     7    47   1
    51     7    48   1
    52    11    49   1
    53    12    50   1
    54    13    51   1
    55    13    52   1
    56    15    53   1
    57    16    54   1
    58    17    55   1
    59    18    56   1
    60    19    57   1
    61    20    58   1
    62    21    59   1
    63    22    60   1
    64    22    61   1
    65    24    62   1
    66    24    63   1
    67    25    64   1
    68    26    65   1
    69    26    66   1
    70    26    67   1
    71    27    68   1
    72    27    69   1
    73    28    70   1
    74    28    71   1
    75    28    72   1
    76    33    73   1
    77    34    74   1
    78    35    75   1
    79    38    76   1
@<TRIPOS>SUBSTRUCTURE
     1  MOL      2

