@<TRIPOS>MOLECULE
4djr_ligand_045
    76    79
SMALL
GAST_HUCK
****
This file was generated by PARSER (from files_GN.cpp)

@<TRIPOS>ATOM
      1 O28        13.8632   41.9023   17.9221 O.2         1 MOL      -0.3971
      2 C27        14.7521   42.1029   17.1119 C.2         1 MOL       0.1764
      3 N29        15.4475   41.1349   16.5707 N.am        1 MOL      -0.2812
      4 C24        16.4268   41.5595   15.6439 C.3         1 MOL       0.0716
      5 C25        16.2749   43.1042   15.6478 C.3         1 MOL      -0.0105
      6 C26        15.1199   43.3998   16.6307 C.3         1 MOL       0.0394
      7 C22        17.8376   41.0539   16.0352 C.3         1 MOL       0.1003
      8 O23        17.8854   39.6179   16.0997 O.3         1 MOL      -0.2616
      9 C21        17.7133   38.8478   17.2078 C.2         1 MOL       0.3200
     10 O22        17.3781   39.4273   18.3847 O.2         1 MOL      -0.3775
     11 N20        17.9075   37.5088   17.1022 N.am        1 MOL      -0.2550
     12 C19        17.7565   36.5753   18.1923 C.3         1 MOL       0.0807
     13 C32        16.2720   36.0935   18.2646 C.3         1 MOL       0.0064
     14 C38        15.8794   35.0400   17.2835 C.ar        1 MOL      -0.0408
     15 C37        15.5875   33.7189   17.7071 C.ar        1 MOL      -0.0603
     16 C36        15.2055   32.7285   16.7835 C.ar        1 MOL      -0.0686
     17 C35        15.1062   33.0440   15.4172 C.ar        1 MOL      -0.0687
     18 C34        15.3908   34.3500   14.9763 C.ar        1 MOL      -0.0686
     19 C33        15.7703   35.3381   15.9019 C.ar        1 MOL      -0.0603
     20 C17        18.8080   35.4173   18.1045 C.3         1 MOL       0.0967
     21 O18        18.4129   34.3537   18.9833 O.3         1 MOL      -0.3877
     22 C16        20.2768   35.7753   18.5048 C.3         1 MOL       0.0579
     23 N11        20.9181   36.8339   17.7523 N.am        1 MOL      -0.2317
     24 C12        20.8114   38.2260   18.1804 C.3         1 MOL       0.0322
     25 C13        21.9733   38.8732   19.0264 C.3         1 MOL      -0.0270
     26 C14        22.8638   37.8632   19.8049 C.3         1 MOL      -0.0610
     27 C15        22.7926   39.9792   18.2796 C.3         1 MOL      -0.0518
     28 C18        23.5403   39.5696   16.9852 C.3         1 MOL      -0.0650
     29 S8         21.8146   36.4549   16.3580 S.o2        1 MOL       0.0679
     30 O10        23.3704   36.6530   16.6482 O.2         1 MOL      -0.1506
     31 O9         21.4541   37.5010   15.2157 O.2         1 MOL      -0.1506
     32 C5         21.6343   34.8860   15.5943 C.ar        1 MOL       0.1007
     33 C6         20.3658   34.4696   15.1144 C.ar        1 MOL      -0.0433
     34 C7         20.2191   33.2455   14.4225 C.ar        1 MOL      -0.0517
     35 C4         22.7633   34.0603   15.3808 C.ar        1 MOL      -0.0206
     36 C3         22.5976   32.8559   14.6873 C.ar        1 MOL       0.0595
     37 S1         23.7310   31.6540   14.2326 S.3         1 MOL       0.0026
     38 C1         22.5614   30.6637   13.4499 C.2         1 MOL       0.0809
     39 N1         21.3485   31.2519   13.5393 N.2         1 MOL      -0.2931
     40 C2         21.3472   32.4371   14.2028 C.ar        1 MOL       0.0375
     41 H1         15.2916   40.1996   16.7771 H           1 MOL       0.1855
     42 H2         16.1638   41.1554   14.6623 H           1 MOL       0.0584
     43 H3         16.0287   43.4692   14.6447 H           1 MOL       0.0313
     44 H4         17.1879   43.6087   15.9806 H           1 MOL       0.0313
     45 H5         15.4499   44.0339   17.4594 H           1 MOL       0.0503
     46 H6         14.2737   43.8670   16.1211 H           1 MOL       0.0503
     47 H7         18.1573   41.4926   16.9848 H           1 MOL       0.0634
     48 H8         18.5519   41.3648   15.2750 H           1 MOL       0.0634
     49 H9         18.1490   37.1586   16.2270 H           1 MOL       0.1873
     50 H10        17.9532   37.0859   19.1332 H           1 MOL       0.0604
     51 H11        15.6024   36.9449   18.1359 H           1 MOL       0.0449
     52 H12        16.0933   35.7362   19.2830 H           1 MOL       0.0449
     53 H13        15.6577   33.4615   18.6953 H           1 MOL       0.0557
     54 H14        14.9965   31.7803   17.1039 H           1 MOL       0.0599
     55 H15        14.8251   32.3232   14.7472 H           1 MOL       0.0559
     56 H16        15.3131   34.5801   13.9831 H           1 MOL       0.0599
     57 H17        15.9565   36.2844   15.5599 H           1 MOL       0.0557
     58 H18        18.8078   35.0157   17.0824 H           1 MOL       0.0634
     59 H19        19.0813   33.6378   18.8527 H           1 MOL       0.2100
     60 H20        20.8885   34.8698   18.4165 H           1 MOL       0.0504
     61 H21        20.2753   36.0326   19.5713 H           1 MOL       0.0504
     62 H22        19.9040   38.3107   18.7858 H           1 MOL       0.0481
     63 H23        20.6082   38.8484   17.3010 H           1 MOL       0.0481
     64 H24        21.4743   39.4316   19.8238 H           1 MOL       0.0314
     65 H25        23.5940   38.3985   20.4140 H           1 MOL       0.0233
     66 H26        23.3940   37.2047   19.1248 H           1 MOL       0.0233
     67 H27        22.2526   37.2605   20.4786 H           1 MOL       0.0233
     68 H28        23.5262   40.3983   18.9731 H           1 MOL       0.0266
     69 H29        22.1128   40.7996   18.0239 H           1 MOL       0.0266
     70 H30        24.0701   40.4432   16.5956 H           1 MOL       0.0230
     71 H31        22.8410   39.2246   16.2198 H           1 MOL       0.0230
     72 H32        24.2753   38.7883   17.1875 H           1 MOL       0.0230
     73 H33        19.5416   35.0481   15.2719 H           1 MOL       0.0580
     74 H34        19.3045   32.9481   14.0868 H           1 MOL       0.0584
     75 H35        23.6982   34.3394   15.6953 H           1 MOL       0.0592
     76 H36        22.7484   29.7655   13.0045 H           1 MOL       0.1260
@<TRIPOS>BOND
     1     1     2   2
     2     2     3  am
     3     2     6   1
     4     3     4   1
     5     4     5   1
     6     4     7   1
     7     5     6   1
     8     7     8   1
     9     8     9   1
    10     9    10   2
    11     9    11  am
    12    11    12   1
    13    12    13   1
    14    12    20   1
    15    13    14   1
    16    14    15  ar
    17    14    19  ar
    18    15    16  ar
    19    16    17  ar
    20    17    18  ar
    21    18    19  ar
    22    20    21   1
    23    20    22   1
    24    22    23   1
    25    23    24   1
    26    23    29  am
    27    24    25   1
    28    25    26   1
    29    25    27   1
    30    27    28   1
    31    29    30   2
    32    29    31   2
    33    29    32   1
    34    32    33  ar
    35    32    35  ar
    36    33    34  ar
    37    34    40  ar
    38    35    36  ar
    39    36    37   1
    40    36    40  ar
    41    37    38   1
    42    38    39   2
    43    39    40   1
    44     3    41   1
    45     4    42   1
    46     5    43   1
    47     5    44   1
    48     6    45   1
    49     6    46   1
    50     7    47   1
    51     7    48   1
    52    11    49   1
    53    12    50   1
    54    13    51   1
    55    13    52   1
    56    15    53   1
    57    16    54   1
    58    17    55   1
    59    18    56   1
    60    19    57   1
    61    20    58   1
    62    21    59   1
    63    22    60   1
    64    22    61   1
    65    24    62   1
    66    24    63   1
    67    25    64   1
    68    26    65   1
    69    26    66   1
    70    26    67   1
    71    27    68   1
    72    27    69   1
    73    28    70   1
    74    28    71   1
    75    28    72   1
    76    33    73   1
    77    34    74   1
    78    35    75   1
    79    38    76   1
@<TRIPOS>SUBSTRUCTURE
     1  MOL      2

