@<TRIPOS>MOLECULE
4djr_ligand_024
    76    79
SMALL
GAST_HUCK
****
This file was generated by PARSER (from files_GN.cpp)

@<TRIPOS>ATOM
      1 O28        14.0587   40.8858   18.0655 O.2         1 MOL      -0.3971
      2 C27        14.8536   41.3486   17.2621 C.2         1 MOL       0.1764
      3 N29        15.5467   40.5948   16.4456 N.am        1 MOL      -0.2812
      4 C24        16.5053   41.3034   15.6805 C.3         1 MOL       0.0716
      5 C25        16.1460   42.7858   15.9649 C.3         1 MOL      -0.0105
      6 C26        15.1874   42.7359   17.1740 C.3         1 MOL       0.0394
      7 C22        17.9371   40.8973   16.1147 C.3         1 MOL       0.1003
      8 O23        18.0482   39.4685   16.1859 O.3         1 MOL      -0.2616
      9 C21        18.9871   38.7919   16.8987 C.2         1 MOL       0.3200
     10 O22        19.9377   39.4655   17.5939 O.2         1 MOL      -0.3775
     11 N20        18.9235   37.4417   16.9049 N.am        1 MOL      -0.2550
     12 C19        19.7854   36.5689   17.6518 C.3         1 MOL       0.0807
     13 C32        19.6252   36.8092   19.1900 C.3         1 MOL       0.0064
     14 C38        20.7040   36.1897   20.0014 C.ar        1 MOL      -0.0408
     15 C37        20.5226   34.9464   20.6465 C.ar        1 MOL      -0.0603
     16 C36        21.5535   34.3806   21.4170 C.ar        1 MOL      -0.0686
     17 C35        22.7841   35.0533   21.5470 C.ar        1 MOL      -0.0687
     18 C34        22.9775   36.2919   20.9135 C.ar        1 MOL      -0.0686
     19 C33        21.9472   36.8556   20.1423 C.ar        1 MOL      -0.0603
     20 C17        19.5685   35.0788   17.2073 C.3         1 MOL       0.0967
     21 O18        19.9997   34.9341   15.8549 O.3         1 MOL      -0.3877
     22 C16        18.1361   34.4651   17.4178 C.3         1 MOL       0.0579
     23 N11        17.3875   34.1174   16.2217 N.am        1 MOL      -0.2317
     24 C12        16.2296   34.8978   15.8281 C.3         1 MOL       0.0322
     25 C13        14.9170   34.7342   16.6858 C.3         1 MOL      -0.0270
     26 C14        14.8395   33.4744   17.5990 C.3         1 MOL      -0.0610
     27 C15        14.4858   36.0249   17.4628 C.3         1 MOL      -0.0518
     28 C18        15.4735   36.5921   18.5174 C.3         1 MOL      -0.0650
     29 S8         17.8561   32.7576   15.3113 S.o2        1 MOL       0.0679
     30 O10        17.5830   32.9813   13.7572 O.2         1 MOL      -0.1506
     31 O9         17.0076   31.4772   15.7294 O.2         1 MOL      -0.1506
     32 C5         19.5528   32.3773   15.4492 C.ar        1 MOL       0.1007
     33 C6         20.0272   31.7338   16.6208 C.ar        1 MOL      -0.0433
     34 C7         21.4105   31.5561   16.8357 C.ar        1 MOL      -0.0517
     35 C4         20.4715   32.7789   14.4505 C.ar        1 MOL      -0.0206
     36 C3         21.8394   32.5787   14.6803 C.ar        1 MOL       0.0595
     37 S1         23.2050   33.0036   13.7357 S.3         1 MOL       0.0026
     38 C1         24.3417   32.3845   14.8718 C.2         1 MOL       0.0809
     39 N1         23.6772   31.8974   15.9425 N.2         1 MOL      -0.2931
     40 C2         22.3243   31.9846   15.8548 C.ar        1 MOL       0.0375
     41 H1         15.4659   39.6271   16.4218 H           1 MOL       0.1855
     42 H2         16.3655   41.0762   14.6189 H           1 MOL       0.0584
     43 H3         15.6299   43.2107   15.0983 H           1 MOL       0.0313
     44 H4         17.0258   43.4000   16.1775 H           1 MOL       0.0313
     45 H5         15.6875   43.0580   18.0887 H           1 MOL       0.0503
     46 H6         14.2965   43.3424   17.0006 H           1 MOL       0.0503
     47 H7         18.1516   41.3256   17.1000 H           1 MOL       0.0634
     48 H8         18.6665   41.2839   15.3957 H           1 MOL       0.0634
     49 H9         18.2505   37.0353   16.3367 H           1 MOL       0.1873
     50 H10        20.8120   36.8154   17.3658 H           1 MOL       0.0604
     51 H11        18.6499   36.4443   19.5111 H           1 MOL       0.0449
     52 H12        19.6170   37.8817   19.4015 H           1 MOL       0.0449
     53 H13        19.6387   34.4415   20.5464 H           1 MOL       0.0557
     54 H14        21.4094   33.4789   21.8750 H           1 MOL       0.0599
     55 H15        23.5342   34.6341   22.1040 H           1 MOL       0.0559
     56 H16        23.8734   36.7761   21.0153 H           1 MOL       0.0599
     57 H17        22.1126   37.7578   19.6870 H           1 MOL       0.0557
     58 H18        20.2627   34.4680   17.7898 H           1 MOL       0.0634
     59 H19        19.3876   35.4870   15.3311 H           1 MOL       0.2100
     60 H20        17.5313   35.1516   18.0118 H           1 MOL       0.0504
     61 H21        18.2223   33.5682   18.0415 H           1 MOL       0.0504
     62 H22        15.9707   34.6810   14.7888 H           1 MOL       0.0481
     63 H23        16.5214   35.9485   15.8098 H           1 MOL       0.0481
     64 H24        14.1006   34.5797   15.9696 H           1 MOL       0.0314
     65 H25        13.8872   33.4484   18.1356 H           1 MOL       0.0233
     66 H26        15.6457   33.4521   18.3362 H           1 MOL       0.0233
     67 H27        14.8972   32.5707   16.9946 H           1 MOL       0.0233
     68 H28        13.5361   35.8375   17.9871 H           1 MOL       0.0266
     69 H29        14.2901   36.8226   16.7390 H           1 MOL       0.0266
     70 H30        15.0226   37.4518   19.0235 H           1 MOL       0.0230
     71 H31        16.3926   36.9351   18.0362 H           1 MOL       0.0230
     72 H32        15.7172   35.8380   19.2742 H           1 MOL       0.0230
     73 H33        19.3741   31.4377   17.3513 H           1 MOL       0.0580
     74 H34        21.7455   31.1247   17.7020 H           1 MOL       0.0584
     75 H35        20.1636   33.2520   13.6039 H           1 MOL       0.0592
     76 H36        25.3551   32.3946   14.7633 H           1 MOL       0.1260
@<TRIPOS>BOND
     1     1     2   2
     2     2     3  am
     3     2     6   1
     4     3     4   1
     5     4     5   1
     6     4     7   1
     7     5     6   1
     8     7     8   1
     9     8     9   1
    10     9    10   2
    11     9    11  am
    12    11    12   1
    13    12    13   1
    14    12    20   1
    15    13    14   1
    16    14    15  ar
    17    14    19  ar
    18    15    16  ar
    19    16    17  ar
    20    17    18  ar
    21    18    19  ar
    22    20    21   1
    23    20    22   1
    24    22    23   1
    25    23    24   1
    26    23    29  am
    27    24    25   1
    28    25    26   1
    29    25    27   1
    30    27    28   1
    31    29    30   2
    32    29    31   2
    33    29    32   1
    34    32    33  ar
    35    32    35  ar
    36    33    34  ar
    37    34    40  ar
    38    35    36  ar
    39    36    37   1
    40    36    40  ar
    41    37    38   1
    42    38    39   2
    43    39    40   1
    44     3    41   1
    45     4    42   1
    46     5    43   1
    47     5    44   1
    48     6    45   1
    49     6    46   1
    50     7    47   1
    51     7    48   1
    52    11    49   1
    53    12    50   1
    54    13    51   1
    55    13    52   1
    56    15    53   1
    57    16    54   1
    58    17    55   1
    59    18    56   1
    60    19    57   1
    61    20    58   1
    62    21    59   1
    63    22    60   1
    64    22    61   1
    65    24    62   1
    66    24    63   1
    67    25    64   1
    68    26    65   1
    69    26    66   1
    70    26    67   1
    71    27    68   1
    72    27    69   1
    73    28    70   1
    74    28    71   1
    75    28    72   1
    76    33    73   1
    77    34    74   1
    78    35    75   1
    79    38    76   1
@<TRIPOS>SUBSTRUCTURE
     1  MOL      2

