@<TRIPOS>MOLECULE
4djr_ligand_070
    76    79
SMALL
GAST_HUCK
****
This file was generated by PARSER (from files_GN.cpp)

@<TRIPOS>ATOM
      1 O28        23.2023   37.4242   17.8863 O.2         1 MOL      -0.3971
      2 C27        22.4759   36.7732   18.6232 C.2         1 MOL       0.1764
      3 N29        21.9013   35.6602   18.2488 N.am        1 MOL      -0.2812
      4 C24        21.1127   35.0477   19.2508 C.3         1 MOL       0.0716
      5 C25        21.2456   36.0145   20.4570 C.3         1 MOL      -0.0105
      6 C26        22.1658   37.1555   19.9688 C.3         1 MOL       0.0394
      7 C22        19.6591   34.7952   18.7752 C.3         1 MOL       0.1003
      8 O23        18.9827   36.0123   18.4191 O.3         1 MOL      -0.2616
      9 C21        17.6805   36.3455   18.6052 C.2         1 MOL       0.3200
     10 O22        16.8237   35.4715   19.1872 O.2         1 MOL      -0.3775
     11 N20        17.2436   37.5205   18.0892 N.am        1 MOL      -0.2550
     12 C19        15.8750   37.9291   17.9488 C.3         1 MOL       0.0807
     13 C32        14.8622   36.7535   17.7247 C.3         1 MOL       0.0064
     14 C38        15.2367   35.7290   16.7080 C.ar        1 MOL      -0.0408
     15 C37        14.7873   34.3937   16.8538 C.ar        1 MOL      -0.0603
     16 C36        15.1343   33.4085   15.9123 C.ar        1 MOL      -0.0686
     17 C35        15.9451   33.7370   14.8117 C.ar        1 MOL      -0.0687
     18 C34        16.3901   35.0624   14.6428 C.ar        1 MOL      -0.0686
     19 C33        16.0283   36.0501   15.5728 C.ar        1 MOL      -0.0603
     20 C17        15.4249   38.9225   19.0729 C.3         1 MOL       0.0967
     21 O18        14.2447   39.6234   18.6533 O.3         1 MOL      -0.3877
     22 C16        16.4654   39.9877   19.5662 C.3         1 MOL       0.0579
     23 N11        17.4044   40.5238   18.5985 N.am        1 MOL      -0.2317
     24 C12        18.8276   40.5460   18.8805 C.3         1 MOL       0.0322
     25 C13        19.3715   41.8908   19.4638 C.3         1 MOL      -0.0270
     26 C14        18.7310   42.2634   20.8326 C.3         1 MOL      -0.0610
     27 C15        20.9342   41.8844   19.5392 C.3         1 MOL      -0.0518
     28 C18        21.5859   43.2896   19.5661 C.3         1 MOL      -0.0650
     29 S8         16.8411   41.2573   17.1730 S.o2        1 MOL       0.0679
     30 O10        15.2646   41.4397   17.2487 O.2         1 MOL      -0.1506
     31 O9         17.0248   40.2234   15.9725 O.2         1 MOL      -0.1506
     32 C5         17.5099   42.8047   16.7304 C.ar        1 MOL       0.1007
     33 C6         16.9411   44.0033   17.2210 C.ar        1 MOL      -0.0433
     34 C7         17.5036   45.2541   16.8936 C.ar        1 MOL      -0.0517
     35 C4         18.6629   42.8607   15.9098 C.ar        1 MOL      -0.0206
     36 C3         19.2130   44.1182   15.6066 C.ar        1 MOL       0.0595
     37 S1         20.5861   44.5489   14.6704 S.3         1 MOL       0.0026
     38 C1         20.3787   46.2386   14.9138 C.2         1 MOL       0.0809
     39 N1         19.2939   46.4447   15.6891 N.2         1 MOL      -0.2931
     40 C2         18.6506   45.3111   16.0782 C.ar        1 MOL       0.0375
     41 H1         22.0340   35.2639   17.3727 H           1 MOL       0.1855
     42 H2         21.5727   34.0828   19.4963 H           1 MOL       0.0584
     43 H3         21.6933   35.4991   21.3109 H           1 MOL       0.0313
     44 H4         20.2763   36.4132   20.7639 H           1 MOL       0.0313
     45 H5         21.6499   38.1175   19.9829 H           1 MOL       0.0503
     46 H6         23.0769   37.2142   20.5715 H           1 MOL       0.0503
     47 H7         19.1195   34.2485   19.5531 H           1 MOL       0.0634
     48 H8         19.6901   34.1604   17.8883 H           1 MOL       0.0634
     49 H9         17.9201   38.0887   17.6721 H           1 MOL       0.1873
     50 H10        15.8361   38.4954   17.0193 H           1 MOL       0.0604
     51 H11        13.9049   37.1653   17.4055 H           1 MOL       0.0449
     52 H12        14.6753   36.2721   18.6891 H           1 MOL       0.0449
     53 H13        14.1889   34.1301   17.6406 H           1 MOL       0.0557
     54 H14        14.7903   32.4534   16.0239 H           1 MOL       0.0599
     55 H15        16.2027   33.0200   14.1354 H           1 MOL       0.0559
     56 H16        16.9704   35.3084   13.8338 H           1 MOL       0.0599
     57 H17        16.3580   37.0024   15.4173 H           1 MOL       0.0557
     58 H18        15.1320   38.3208   19.9438 H           1 MOL       0.0634
     59 H19        13.4855   39.0859   18.9577 H           1 MOL       0.2100
     60 H20        17.0043   39.5369   20.4092 H           1 MOL       0.0504
     61 H21        15.9347   40.8389   20.0090 H           1 MOL       0.0504
     62 H22        19.3679   40.3259   17.9582 H           1 MOL       0.0481
     63 H23        19.0871   39.7367   19.5689 H           1 MOL       0.0481
     64 H24        19.0960   42.6765   18.7590 H           1 MOL       0.0314
     65 H25        19.1260   43.2080   21.2059 H           1 MOL       0.0233
     66 H26        18.9310   41.4860   21.5712 H           1 MOL       0.0233
     67 H27        17.6522   42.3824   20.7289 H           1 MOL       0.0233
     68 H28        21.3407   41.3650   18.6673 H           1 MOL       0.0266
     69 H29        21.2565   41.3310   20.4240 H           1 MOL       0.0266
     70 H30        22.6723   43.1867   19.5951 H           1 MOL       0.0230
     71 H31        21.2695   43.8514   20.4460 H           1 MOL       0.0230
     72 H32        21.3128   43.8488   18.6676 H           1 MOL       0.0230
     73 H33        16.1245   43.9748   17.8307 H           1 MOL       0.0580
     74 H34        17.0827   46.1187   17.2403 H           1 MOL       0.0584
     75 H35        19.1183   42.0129   15.5612 H           1 MOL       0.0592
     76 H36        20.9801   46.9654   14.5341 H           1 MOL       0.1260
@<TRIPOS>BOND
     1     1     2   2
     2     2     3  am
     3     2     6   1
     4     3     4   1
     5     4     5   1
     6     4     7   1
     7     5     6   1
     8     7     8   1
     9     8     9   1
    10     9    10   2
    11     9    11  am
    12    11    12   1
    13    12    13   1
    14    12    20   1
    15    13    14   1
    16    14    15  ar
    17    14    19  ar
    18    15    16  ar
    19    16    17  ar
    20    17    18  ar
    21    18    19  ar
    22    20    21   1
    23    20    22   1
    24    22    23   1
    25    23    24   1
    26    23    29  am
    27    24    25   1
    28    25    26   1
    29    25    27   1
    30    27    28   1
    31    29    30   2
    32    29    31   2
    33    29    32   1
    34    32    33  ar
    35    32    35  ar
    36    33    34  ar
    37    34    40  ar
    38    35    36  ar
    39    36    37   1
    40    36    40  ar
    41    37    38   1
    42    38    39   2
    43    39    40   1
    44     3    41   1
    45     4    42   1
    46     5    43   1
    47     5    44   1
    48     6    45   1
    49     6    46   1
    50     7    47   1
    51     7    48   1
    52    11    49   1
    53    12    50   1
    54    13    51   1
    55    13    52   1
    56    15    53   1
    57    16    54   1
    58    17    55   1
    59    18    56   1
    60    19    57   1
    61    20    58   1
    62    21    59   1
    63    22    60   1
    64    22    61   1
    65    24    62   1
    66    24    63   1
    67    25    64   1
    68    26    65   1
    69    26    66   1
    70    26    67   1
    71    27    68   1
    72    27    69   1
    73    28    70   1
    74    28    71   1
    75    28    72   1
    76    33    73   1
    77    34    74   1
    78    35    75   1
    79    38    76   1
@<TRIPOS>SUBSTRUCTURE
     1  MOL      2

