@<TRIPOS>MOLECULE
4djr_ligand_039
    76    79
SMALL
GAST_HUCK
****
This file was generated by PARSER (from files_GN.cpp)

@<TRIPOS>ATOM
      1 O28        22.8833   34.0108   18.7132 O.2         1 MOL      -0.3971
      2 C27        22.9552   34.0544   17.4922 C.2         1 MOL       0.1764
      3 N29        23.0771   32.9873   16.7431 N.am        1 MOL      -0.2812
      4 C24        23.0216   33.2491   15.3519 C.3         1 MOL       0.0716
      5 C25        23.1561   34.7903   15.3044 C.3         1 MOL      -0.0105
      6 C26        22.8149   35.2639   16.7349 C.3         1 MOL       0.0394
      7 C22        24.0942   32.4631   14.5454 C.3         1 MOL       0.1003
      8 O23        23.6167   31.1537   14.1641 O.3         1 MOL      -0.2616
      9 C21        22.6367   30.8917   13.2448 C.2         1 MOL       0.3200
     10 O22        22.1056   31.9222   12.5412 O.2         1 MOL      -0.3775
     11 N20        22.2281   29.6083   13.1088 N.am        1 MOL      -0.2550
     12 C19        21.1122   29.0759   12.3773 C.3         1 MOL       0.0807
     13 C32        20.0509   30.1009   11.8313 C.3         1 MOL       0.0064
     14 C38        19.2169   30.8659   12.8037 C.ar        1 MOL      -0.0408
     15 C37        18.4847   30.1892   13.8041 C.ar        1 MOL      -0.0603
     16 C36        17.6078   30.8911   14.6613 C.ar        1 MOL      -0.0686
     17 C35        17.4408   32.2781   14.5198 C.ar        1 MOL      -0.0687
     18 C34        18.1403   32.9672   13.5113 C.ar        1 MOL      -0.0686
     19 C33        19.0104   32.2588   12.6521 C.ar        1 MOL      -0.0603
     20 C17        21.6186   28.0704   11.2806 C.3         1 MOL       0.0967
     21 O18        22.5160   28.8040   10.4281 O.3         1 MOL      -0.3877
     22 C16        20.5430   27.3296   10.4044 C.3         1 MOL       0.0579
     23 N11        19.8441   26.2032   10.9982 N.am        1 MOL      -0.2317
     24 C12        18.7091   26.3998   11.8782 C.3         1 MOL       0.0322
     25 C13        17.2686   26.6830   11.2997 C.3         1 MOL      -0.0270
     26 C14        16.7314   28.1089   11.6357 C.3         1 MOL      -0.0610
     27 C15        16.9374   26.3125    9.8181 C.3         1 MOL      -0.0518
     28 C18        17.6258   27.0923    8.6685 C.3         1 MOL      -0.0650
     29 S8         20.3847   24.6084   10.7306 S.o2        1 MOL       0.0679
     30 O10        21.3403   24.0947   11.8938 O.2         1 MOL      -0.1506
     31 O9         21.3253   24.5484    9.4487 O.2         1 MOL      -0.1506
     32 C5         19.0978   23.4486   10.4615 C.ar        1 MOL       0.1007
     33 C6         18.7956   23.0110    9.1455 C.ar        1 MOL      -0.0433
     34 C7         17.6305   22.2568    8.8853 C.ar        1 MOL      -0.0517
     35 C4         18.2483   23.0720   11.5311 C.ar        1 MOL      -0.0206
     36 C3         17.0879   22.3346   11.2463 C.ar        1 MOL       0.0595
     37 S1         15.8119   21.8023   12.2616 S.3         1 MOL       0.0026
     38 C1         14.9273   21.0647   10.9832 C.2         1 MOL       0.0809
     39 N1         15.5981   21.2423    9.8237 N.2         1 MOL      -0.2931
     40 C2         16.7644   21.9308    9.9397 C.ar        1 MOL       0.0375
     41 H1         23.1072   32.0893   17.1111 H           1 MOL       0.1855
     42 H2         22.0225   32.9676   15.0050 H           1 MOL       0.0584
     43 H3         22.4736   35.2333   14.5721 H           1 MOL       0.0313
     44 H4         24.1804   35.0913   15.0581 H           1 MOL       0.0313
     45 H5         23.5092   36.0384   17.0744 H           1 MOL       0.0503
     46 H6         21.7874   35.6347   16.8064 H           1 MOL       0.0503
     47 H7         24.9857   32.3264   15.1533 H           1 MOL       0.0634
     48 H8         24.3802   33.0159   13.6479 H           1 MOL       0.0634
     49 H9         22.7174   28.9674   13.6320 H           1 MOL       0.1873
     50 H10        20.6130   28.4664   13.1282 H           1 MOL       0.0604
     51 H11        19.3265   29.5648   11.2110 H           1 MOL       0.0449
     52 H12        20.5705   30.7816   11.1508 H           1 MOL       0.0449
     53 H13        18.5400   29.1771   13.8962 H           1 MOL       0.0557
     54 H14        17.0707   30.3810   15.3755 H           1 MOL       0.0599
     55 H15        16.7904   32.7836   15.1295 H           1 MOL       0.0559
     56 H16        18.0024   33.9755   13.3930 H           1 MOL       0.0599
     57 H17        19.4578   32.7787   11.8944 H           1 MOL       0.0557
     58 H18        22.2207   27.2914   11.7535 H           1 MOL       0.0634
     59 H19        22.2015   28.6797    9.4942 H           1 MOL       0.2100
     60 H20        21.0481   26.9703    9.5043 H           1 MOL       0.0504
     61 H21        19.8184   28.0541   10.0342 H           1 MOL       0.0504
     62 H22        18.9389   27.2030   12.5734 H           1 MOL       0.0481
     63 H23        18.6334   25.5374   12.5493 H           1 MOL       0.0481
     64 H24        16.6113   26.0208   11.8744 H           1 MOL       0.0314
     65 H25        15.6715   28.1893   11.3783 H           1 MOL       0.0233
     66 H26        17.2721   28.8738   11.0841 H           1 MOL       0.0233
     67 H27        16.8285   28.3101   12.7049 H           1 MOL       0.0233
     68 H28        15.8636   26.4339    9.6653 H           1 MOL       0.0266
     69 H29        17.1283   25.2579    9.6667 H           1 MOL       0.0266
     70 H30        17.1416   26.8426    7.7155 H           1 MOL       0.0230
     71 H31        18.6799   26.8226    8.5786 H           1 MOL       0.0230
     72 H32        17.5401   28.1702    8.8164 H           1 MOL       0.0230
     73 H33        19.3864   23.2874    8.3578 H           1 MOL       0.0580
     74 H34        17.4017   21.9860    7.9287 H           1 MOL       0.0584
     75 H35        18.4365   23.3721   12.4884 H           1 MOL       0.0592
     76 H36        14.0356   20.5756   11.0816 H           1 MOL       0.1260
@<TRIPOS>BOND
     1     1     2   2
     2     2     3  am
     3     2     6   1
     4     3     4   1
     5     4     5   1
     6     4     7   1
     7     5     6   1
     8     7     8   1
     9     8     9   1
    10     9    10   2
    11     9    11  am
    12    11    12   1
    13    12    13   1
    14    12    20   1
    15    13    14   1
    16    14    15  ar
    17    14    19  ar
    18    15    16  ar
    19    16    17  ar
    20    17    18  ar
    21    18    19  ar
    22    20    21   1
    23    20    22   1
    24    22    23   1
    25    23    24   1
    26    23    29  am
    27    24    25   1
    28    25    26   1
    29    25    27   1
    30    27    28   1
    31    29    30   2
    32    29    31   2
    33    29    32   1
    34    32    33  ar
    35    32    35  ar
    36    33    34  ar
    37    34    40  ar
    38    35    36  ar
    39    36    37   1
    40    36    40  ar
    41    37    38   1
    42    38    39   2
    43    39    40   1
    44     3    41   1
    45     4    42   1
    46     5    43   1
    47     5    44   1
    48     6    45   1
    49     6    46   1
    50     7    47   1
    51     7    48   1
    52    11    49   1
    53    12    50   1
    54    13    51   1
    55    13    52   1
    56    15    53   1
    57    16    54   1
    58    17    55   1
    59    18    56   1
    60    19    57   1
    61    20    58   1
    62    21    59   1
    63    22    60   1
    64    22    61   1
    65    24    62   1
    66    24    63   1
    67    25    64   1
    68    26    65   1
    69    26    66   1
    70    26    67   1
    71    27    68   1
    72    27    69   1
    73    28    70   1
    74    28    71   1
    75    28    72   1
    76    33    73   1
    77    34    74   1
    78    35    75   1
    79    38    76   1
@<TRIPOS>SUBSTRUCTURE
     1  MOL      2

