@<TRIPOS>MOLECULE
4djr_ligand_059
    76    79
SMALL
GAST_HUCK
****
This file was generated by PARSER (from files_GN.cpp)

@<TRIPOS>ATOM
      1 O28        21.8933   43.3447   14.3543 O.2         1 MOL      -0.3971
      2 C27        20.8358   43.1709   14.9526 C.2         1 MOL       0.1764
      3 N29        20.5250   42.0503   15.5498 N.am        1 MOL      -0.2812
      4 C24        19.3188   42.1061   16.2918 C.3         1 MOL       0.0716
      5 C25        18.7209   43.4739   15.8771 C.3         1 MOL      -0.0105
      6 C26        19.8764   44.2130   15.1666 C.3         1 MOL       0.0394
      7 C22        18.3872   40.8983   16.0139 C.3         1 MOL       0.1003
      8 O23        18.8803   39.7253   16.6809 O.3         1 MOL      -0.2616
      9 C21        18.2492   38.5245   16.7513 C.2         1 MOL       0.3200
     10 O22        17.0057   38.3430   16.2421 O.2         1 MOL      -0.3775
     11 N20        18.8798   37.5410   17.4398 N.am        1 MOL      -0.2550
     12 C19        18.3167   36.2691   17.7911 C.3         1 MOL       0.0807
     13 C32        17.7253   35.5702   16.5195 C.3         1 MOL       0.0064
     14 C38        16.7443   34.4838   16.8032 C.ar        1 MOL      -0.0408
     15 C37        17.0184   33.1385   16.4623 C.ar        1 MOL      -0.0603
     16 C36        16.0603   32.1369   16.6818 C.ar        1 MOL      -0.0686
     17 C35        14.8132   32.4670   17.2359 C.ar        1 MOL      -0.0687
     18 C34        14.5322   33.7976   17.5986 C.ar        1 MOL      -0.0686
     19 C33        15.4905   34.8025   17.3801 C.ar        1 MOL      -0.0603
     20 C17        19.3438   35.3391   18.5406 C.3         1 MOL       0.0967
     21 O18        18.6082   34.5422   19.4719 O.3         1 MOL      -0.3877
     22 C16        20.5100   36.0254   19.3172 C.3         1 MOL       0.0579
     23 N11        21.5958   36.5815   18.5165 N.am        1 MOL      -0.2317
     24 C12        22.5760   35.7109   17.8722 C.3         1 MOL       0.0322
     25 C13        22.2733   35.1960   16.4232 C.3         1 MOL      -0.0270
     26 C14        21.6427   36.3006   15.5315 C.3         1 MOL      -0.0610
     27 C15        23.5648   34.5891   15.7759 C.3         1 MOL      -0.0518
     28 C18        23.3427   33.7999   14.4651 C.3         1 MOL      -0.0650
     29 S8         22.0265   38.2074   18.7612 S.o2        1 MOL       0.0679
     30 O10        20.7374   39.1098   19.0154 O.2         1 MOL      -0.1506
     31 O9         22.5642   38.8363   17.3968 O.2         1 MOL      -0.1506
     32 C5         23.1877   38.5748   20.0075 C.ar        1 MOL       0.1007
     33 C6         23.5582   39.9197   20.2478 C.ar        1 MOL      -0.0433
     34 C7         24.5157   40.2387   21.2325 C.ar        1 MOL      -0.0517
     35 C4         23.7795   37.5379   20.7641 C.ar        1 MOL      -0.0206
     36 C3         24.7319   37.8796   21.7370 C.ar        1 MOL       0.0595
     37 S1         25.6403   36.9046   22.8168 S.3         1 MOL       0.0026
     38 C1         26.4551   38.2359   23.5421 C.2         1 MOL       0.0809
     39 N1         26.0324   39.3804   22.9604 N.2         1 MOL      -0.2931
     40 C2         25.1050   39.2096   21.9843 C.ar        1 MOL       0.0375
     41 H1         21.1201   41.2841   15.5671 H           1 MOL       0.1855
     42 H2         19.5781   42.1169   17.3542 H           1 MOL       0.0584
     43 H3         18.3679   44.0391   16.7409 H           1 MOL       0.0313
     44 H4         17.8919   43.3509   15.1772 H           1 MOL       0.0313
     45 H5         19.5494   44.6528   14.2168 H           1 MOL       0.0503
     46 H6         20.3058   44.9927   15.8050 H           1 MOL       0.0503
     47 H7         18.3363   40.7027   14.9360 H           1 MOL       0.0634
     48 H8         17.3788   41.1423   16.3727 H           1 MOL       0.0634
     49 H9         19.7579   37.7474   17.7793 H           1 MOL       0.1873
     50 H10        17.5040   36.4854   18.4970 H           1 MOL       0.0604
     51 H11        18.5595   35.1968   15.9128 H           1 MOL       0.0449
     52 H12        17.2138   36.3060   15.8869 H           1 MOL       0.0449
     53 H13        17.9238   32.8869   16.0562 H           1 MOL       0.0557
     54 H14        16.2672   31.1732   16.4291 H           1 MOL       0.0599
     55 H15        14.1112   31.7394   17.3796 H           1 MOL       0.0559
     56 H16        13.6273   34.0383   18.0034 H           1 MOL       0.0599
     57 H17        15.2636   35.7676   17.6334 H           1 MOL       0.0557
     58 H18        19.7741   34.6279   17.8370 H           1 MOL       0.0634
     59 H19        19.0845   33.6869   19.5176 H           1 MOL       0.2100
     60 H20        20.9516   35.2914   19.9991 H           1 MOL       0.0504
     61 H21        20.0559   36.7803   19.9633 H           1 MOL       0.0504
     62 H22        22.7273   34.8359   18.5135 H           1 MOL       0.0481
     63 H23        23.5531   36.2071   17.8383 H           1 MOL       0.0481
     64 H24        21.5443   34.3876   16.4870 H           1 MOL       0.0314
     65 H25        21.3868   35.9083   14.5466 H           1 MOL       0.0233
     66 H26        22.3392   37.1325   15.4122 H           1 MOL       0.0233
     67 H27        20.7236   36.6815   15.9742 H           1 MOL       0.0233
     68 H28        24.0293   33.8940   16.4797 H           1 MOL       0.0266
     69 H29        24.2890   35.3907   15.5876 H           1 MOL       0.0266
     70 H30        24.3003   33.4144   14.1019 H           1 MOL       0.0230
     71 H31        22.9118   34.4300   13.6848 H           1 MOL       0.0230
     72 H32        22.6745   32.9519   14.6412 H           1 MOL       0.0230
     73 H33        23.1383   40.6760   19.7054 H           1 MOL       0.0580
     74 H34        24.7813   41.2131   21.3959 H           1 MOL       0.0584
     75 H35        23.5334   36.5580   20.6182 H           1 MOL       0.0592
     76 H36        27.1465   38.1740   24.2890 H           1 MOL       0.1260
@<TRIPOS>BOND
     1     1     2   2
     2     2     3  am
     3     2     6   1
     4     3     4   1
     5     4     5   1
     6     4     7   1
     7     5     6   1
     8     7     8   1
     9     8     9   1
    10     9    10   2
    11     9    11  am
    12    11    12   1
    13    12    13   1
    14    12    20   1
    15    13    14   1
    16    14    15  ar
    17    14    19  ar
    18    15    16  ar
    19    16    17  ar
    20    17    18  ar
    21    18    19  ar
    22    20    21   1
    23    20    22   1
    24    22    23   1
    25    23    24   1
    26    23    29  am
    27    24    25   1
    28    25    26   1
    29    25    27   1
    30    27    28   1
    31    29    30   2
    32    29    31   2
    33    29    32   1
    34    32    33  ar
    35    32    35  ar
    36    33    34  ar
    37    34    40  ar
    38    35    36  ar
    39    36    37   1
    40    36    40  ar
    41    37    38   1
    42    38    39   2
    43    39    40   1
    44     3    41   1
    45     4    42   1
    46     5    43   1
    47     5    44   1
    48     6    45   1
    49     6    46   1
    50     7    47   1
    51     7    48   1
    52    11    49   1
    53    12    50   1
    54    13    51   1
    55    13    52   1
    56    15    53   1
    57    16    54   1
    58    17    55   1
    59    18    56   1
    60    19    57   1
    61    20    58   1
    62    21    59   1
    63    22    60   1
    64    22    61   1
    65    24    62   1
    66    24    63   1
    67    25    64   1
    68    26    65   1
    69    26    66   1
    70    26    67   1
    71    27    68   1
    72    27    69   1
    73    28    70   1
    74    28    71   1
    75    28    72   1
    76    33    73   1
    77    34    74   1
    78    35    75   1
    79    38    76   1
@<TRIPOS>SUBSTRUCTURE
     1  MOL      2

