@<TRIPOS>MOLECULE
4djr_ligand_010
    76    79
SMALL
GAST_HUCK
****
This file was generated by PARSER (from files_GN.cpp)

@<TRIPOS>ATOM
      1 O28        17.4575   40.0326   16.1566 O.2         1 MOL      -0.3971
      2 C27        18.5500   40.5035   15.8804 C.2         1 MOL       0.1764
      3 N29        19.4732   39.8234   15.2458 N.am        1 MOL      -0.2812
      4 C24        20.7212   40.4912   15.1514 C.3         1 MOL       0.0716
      5 C25        20.4030   41.9029   15.7183 C.3         1 MOL      -0.0105
      6 C26        18.9870   41.7899   16.3209 C.3         1 MOL       0.0394
      7 C22        21.8416   39.7101   15.8994 C.3         1 MOL       0.1003
      8 O23        21.3058   39.0196   17.0431 O.3         1 MOL      -0.2616
      9 C21        21.3359   37.6882   17.2990 C.2         1 MOL       0.3200
     10 O22        22.0445   36.8424   16.5075 O.2         1 MOL      -0.3775
     11 N20        20.5829   37.2314   18.3234 N.am        1 MOL      -0.2550
     12 C19        20.4171   35.8602   18.7278 C.3         1 MOL       0.0807
     13 C32        20.7067   35.7623   20.2599 C.3         1 MOL       0.0064
     14 C38        22.1310   35.9860   20.6615 C.ar        1 MOL      -0.0408
     15 C37        22.7741   37.2253   20.4174 C.ar        1 MOL      -0.0603
     16 C36        24.1068   37.4402   20.8221 C.ar        1 MOL      -0.0686
     17 C35        24.8123   36.4242   21.4898 C.ar        1 MOL      -0.0687
     18 C34        24.1752   35.2031   21.7732 C.ar        1 MOL      -0.0686
     19 C33        22.8475   34.9867   21.3600 C.ar        1 MOL      -0.0603
     20 C17        18.9638   35.4057   18.3455 C.3         1 MOL       0.0967
     21 O18        18.5290   34.2476   19.0626 O.3         1 MOL      -0.3877
     22 C16        18.7079   35.1889   16.8214 C.3         1 MOL       0.0579
     23 N11        19.3778   34.0562   16.1837 N.am        1 MOL      -0.2317
     24 C12        20.4846   34.2743   15.2596 C.3         1 MOL       0.0322
     25 C13        21.9224   33.7326   15.6220 C.3         1 MOL      -0.0270
     26 C14        21.9976   32.6035   16.6883 C.3         1 MOL      -0.0610
     27 C15        22.6913   33.3727   14.3042 C.3         1 MOL      -0.0518
     28 C18        24.2212   33.1944   14.4414 C.3         1 MOL      -0.0650
     29 S8         18.4911   32.6073   16.0256 S.o2        1 MOL       0.0679
     30 O10        17.4129   32.8491   14.8759 O.2         1 MOL      -0.1506
     31 O9         17.6182   32.3322   17.3308 O.2         1 MOL      -0.1506
     32 C5         19.3209   31.1290   15.5907 C.ar        1 MOL       0.1007
     33 C6         19.3163   30.0101   16.4624 C.ar        1 MOL      -0.0433
     34 C7         20.0193   28.8309   16.1321 C.ar        1 MOL      -0.0517
     35 C4         19.9938   31.0290   14.3472 C.ar        1 MOL      -0.0206
     36 C3         20.7250   29.8645   14.0592 C.ar        1 MOL       0.0595
     37 S1         21.7255   29.4606   12.7244 S.3         1 MOL       0.0026
     38 C1         22.1377   27.9092   13.3417 C.2         1 MOL       0.0809
     39 N1         21.5192   27.7253   14.5287 N.2         1 MOL      -0.2931
     40 C2         20.7551   28.7710   14.9363 C.ar        1 MOL       0.0375
     41 H1         19.3448   38.9039   14.9654 H           1 MOL       0.1855
     42 H2         20.9926   40.5770   14.0953 H           1 MOL       0.0584
     43 H3         20.4043   42.6397   14.9079 H           1 MOL       0.0313
     44 H4         21.1212   42.2313   16.4743 H           1 MOL       0.0313
     45 H5         19.0173   41.8291   17.4125 H           1 MOL       0.0503
     46 H6         18.3267   42.5741   15.9403 H           1 MOL       0.0503
     47 H7         22.6194   40.3975   16.2314 H           1 MOL       0.0634
     48 H8         22.3088   38.9996   15.2095 H           1 MOL       0.0634
     49 H9         20.0458   37.8973   18.7986 H           1 MOL       0.1873
     50 H10        21.1227   35.1973   18.2185 H           1 MOL       0.0604
     51 H11        20.3977   34.7718   20.6035 H           1 MOL       0.0449
     52 H12        20.0814   36.4795   20.7924 H           1 MOL       0.0449
     53 H13        22.2779   37.9953   19.9650 H           1 MOL       0.0557
     54 H14        24.5573   38.3385   20.6356 H           1 MOL       0.0599
     55 H15        25.7821   36.5782   21.7823 H           1 MOL       0.0559
     56 H16        24.6797   34.4745   22.2837 H           1 MOL       0.0599
     57 H17        22.4048   34.0893   21.5888 H           1 MOL       0.0557
     58 H18        18.2861   36.2050   18.6648 H           1 MOL       0.0634
     59 H19        19.1990   33.5526   18.9104 H           1 MOL       0.2100
     60 H20        18.9493   36.1215   16.3067 H           1 MOL       0.0504
     61 H21        17.6272   35.0896   16.6914 H           1 MOL       0.0504
     62 H22        20.6090   35.3490   15.0855 H           1 MOL       0.0481
     63 H23        20.1670   33.8872   14.2848 H           1 MOL       0.0481
     64 H24        22.4786   34.5692   16.0641 H           1 MOL       0.0314
     65 H25        23.0185   32.5513   17.0858 H           1 MOL       0.0233
     66 H26        21.7335   31.6392   16.2401 H           1 MOL       0.0233
     67 H27        21.3254   32.8198   17.5233 H           1 MOL       0.0233
     68 H28        22.5265   34.1656   13.5650 H           1 MOL       0.0266
     69 H29        22.2800   32.4467   13.8847 H           1 MOL       0.0266
     70 H30        24.6666   33.0612   13.4532 H           1 MOL       0.0230
     71 H31        24.4559   32.3107   15.0393 H           1 MOL       0.0230
     72 H32        24.6693   34.0734   14.9096 H           1 MOL       0.0230
     73 H33        18.8055   30.0470   17.3501 H           1 MOL       0.0580
     74 H34        19.9942   28.0289   16.7639 H           1 MOL       0.0584
     75 H35        19.9812   31.7924   13.6688 H           1 MOL       0.0592
     76 H36        22.7768   27.2466   12.9029 H           1 MOL       0.1260
@<TRIPOS>BOND
     1     1     2   2
     2     2     3  am
     3     2     6   1
     4     3     4   1
     5     4     5   1
     6     4     7   1
     7     5     6   1
     8     7     8   1
     9     8     9   1
    10     9    10   2
    11     9    11  am
    12    11    12   1
    13    12    13   1
    14    12    20   1
    15    13    14   1
    16    14    15  ar
    17    14    19  ar
    18    15    16  ar
    19    16    17  ar
    20    17    18  ar
    21    18    19  ar
    22    20    21   1
    23    20    22   1
    24    22    23   1
    25    23    24   1
    26    23    29  am
    27    24    25   1
    28    25    26   1
    29    25    27   1
    30    27    28   1
    31    29    30   2
    32    29    31   2
    33    29    32   1
    34    32    33  ar
    35    32    35  ar
    36    33    34  ar
    37    34    40  ar
    38    35    36  ar
    39    36    37   1
    40    36    40  ar
    41    37    38   1
    42    38    39   2
    43    39    40   1
    44     3    41   1
    45     4    42   1
    46     5    43   1
    47     5    44   1
    48     6    45   1
    49     6    46   1
    50     7    47   1
    51     7    48   1
    52    11    49   1
    53    12    50   1
    54    13    51   1
    55    13    52   1
    56    15    53   1
    57    16    54   1
    58    17    55   1
    59    18    56   1
    60    19    57   1
    61    20    58   1
    62    21    59   1
    63    22    60   1
    64    22    61   1
    65    24    62   1
    66    24    63   1
    67    25    64   1
    68    26    65   1
    69    26    66   1
    70    26    67   1
    71    27    68   1
    72    27    69   1
    73    28    70   1
    74    28    71   1
    75    28    72   1
    76    33    73   1
    77    34    74   1
    78    35    75   1
    79    38    76   1
@<TRIPOS>SUBSTRUCTURE
     1  MOL      2

