@<TRIPOS>MOLECULE
4djr_ligand_044
    76    79
SMALL
GAST_HUCK
****
This file was generated by PARSER (from files_GN.cpp)

@<TRIPOS>ATOM
      1 O28        21.9542   41.0222   21.0467 O.2         1 MOL      -0.3971
      2 C27        22.3268   41.2619   19.9065 C.2         1 MOL       0.1764
      3 N29        21.7089   40.8108   18.8446 N.am        1 MOL      -0.2812
      4 C24        22.3378   41.1117   17.6115 C.3         1 MOL       0.0716
      5 C25        23.5372   42.0017   18.0488 C.3         1 MOL      -0.0105
      6 C26        23.5371   41.9630   19.5959 C.3         1 MOL       0.0394
      7 C22        22.7230   39.8329   16.8077 C.3         1 MOL       0.1003
      8 O23        21.6423   38.8861   16.8272 O.3         1 MOL      -0.2616
      9 C21        21.6746   37.5904   17.2333 C.2         1 MOL       0.3200
     10 O22        22.8386   36.9796   17.5695 O.2         1 MOL      -0.3775
     11 N20        20.4724   37.0194   17.4565 N.am        1 MOL      -0.2550
     12 C19        20.2257   35.8407   18.2401 C.3         1 MOL       0.0807
     13 C32        20.2168   36.2367   19.7539 C.3         1 MOL       0.0064
     14 C38        21.5953   36.3457   20.3161 C.ar        1 MOL      -0.0408
     15 C37        22.3208   37.5553   20.2242 C.ar        1 MOL      -0.0603
     16 C36        23.6570   37.6335   20.6544 C.ar        1 MOL      -0.0686
     17 C35        24.2906   36.4940   21.1790 C.ar        1 MOL      -0.0687
     18 C34        23.5851   35.2830   21.2810 C.ar        1 MOL      -0.0686
     19 C33        22.2447   35.2082   20.8516 C.ar        1 MOL      -0.0603
     20 C17        18.9087   35.1675   17.7262 C.3         1 MOL       0.0967
     21 O18        18.3771   34.2458   18.6819 O.3         1 MOL      -0.3877
     22 C16        19.0486   34.4624   16.3341 C.3         1 MOL       0.0579
     23 N11        19.4367   33.0664   16.3775 N.am        1 MOL      -0.2317
     24 C12        20.7407   32.6370   16.8460 C.3         1 MOL       0.0322
     25 C13        22.0027   33.2559   16.1669 C.3         1 MOL      -0.0270
     26 C14        23.2577   32.9957   17.0512 C.3         1 MOL      -0.0610
     27 C15        22.1958   32.7466   14.7019 C.3         1 MOL      -0.0518
     28 C18        23.0088   33.7255   13.8117 C.3         1 MOL      -0.0650
     29 S8         18.2064   31.8945   16.2801 S.o2        1 MOL       0.0679
     30 O10        16.8144   32.4875   16.7704 O.2         1 MOL      -0.1506
     31 O9         18.4615   30.7745   17.3818 O.2         1 MOL      -0.1506
     32 C5         18.0509   31.1235   14.7221 C.ar        1 MOL       0.1007
     33 C6         16.8194   31.1333   14.0224 C.ar        1 MOL      -0.0433
     34 C7         16.7064   30.5293   12.7527 C.ar        1 MOL      -0.0517
     35 C4         19.1732   30.4875   14.1444 C.ar        1 MOL      -0.0206
     36 C3         19.0447   29.9097   12.8723 C.ar        1 MOL       0.0595
     37 S1         20.1850   29.0931   11.8827 S.3         1 MOL       0.0026
     38 C1         19.0653   28.8139   10.6066 C.2         1 MOL       0.0809
     39 N1         17.8642   29.3310   10.9468 N.2         1 MOL      -0.2931
     40 C2         17.8338   29.9276   12.1667 C.ar        1 MOL       0.0375
     41 H1         20.8877   40.2953   18.9012 H           1 MOL       0.1855
     42 H2         21.6340   41.6995   17.0177 H           1 MOL       0.0584
     43 H3         23.3914   43.0298   17.7002 H           1 MOL       0.0313
     44 H4         24.4929   41.6390   17.6563 H           1 MOL       0.0313
     45 H5         24.3967   41.4065   19.9803 H           1 MOL       0.0503
     46 H6         23.5246   42.9698   20.0217 H           1 MOL       0.0503
     47 H7         23.6308   39.3853   17.2278 H           1 MOL       0.0634
     48 H8         22.9232   40.1105   15.7693 H           1 MOL       0.0634
     49 H9         19.7041   37.5761   17.2566 H           1 MOL       0.1873
     50 H10        21.0318   35.1217   18.1119 H           1 MOL       0.0604
     51 H11        19.6751   35.4919   20.3413 H           1 MOL       0.0449
     52 H12        19.6775   37.1789   19.8839 H           1 MOL       0.0449
     53 H13        21.8772   38.3855   19.8309 H           1 MOL       0.0557
     54 H14        24.1740   38.5106   20.5672 H           1 MOL       0.0599
     55 H15        25.2690   36.5417   21.4709 H           1 MOL       0.0559
     56 H16        24.0512   34.4516   21.6497 H           1 MOL       0.0599
     57 H17        21.7553   34.3131   20.9067 H           1 MOL       0.0557
     58 H18        18.1515   35.9525   17.6392 H           1 MOL       0.0634
     59 H19        19.0517   33.5440   18.7839 H           1 MOL       0.2100
     60 H20        19.7479   35.0182   15.7109 H           1 MOL       0.0504
     61 H21        18.0942   34.5585   15.8120 H           1 MOL       0.0504
     62 H22        20.8477   31.5515   16.7460 H           1 MOL       0.0481
     63 H23        20.7806   32.8409   17.9156 H           1 MOL       0.0481
     64 H24        21.8796   34.3391   16.1284 H           1 MOL       0.0314
     65 H25        24.1425   33.4845   16.6405 H           1 MOL       0.0233
     66 H26        23.4528   31.9195   17.1275 H           1 MOL       0.0233
     67 H27        23.1033   33.3964   18.0591 H           1 MOL       0.0233
     68 H28        21.2173   32.6265   14.2251 H           1 MOL       0.0266
     69 H29        22.6784   31.7633   14.7065 H           1 MOL       0.0266
     70 H30        23.1844   33.2742   12.8325 H           1 MOL       0.0230
     71 H31        23.9804   33.9558   14.2612 H           1 MOL       0.0230
     72 H32        22.4462   34.6558   13.6761 H           1 MOL       0.0230
     73 H33        15.9917   31.5780   14.4282 H           1 MOL       0.0580
     74 H34        15.8123   30.5335   12.2555 H           1 MOL       0.0584
     75 H35        20.0719   30.4459   14.6243 H           1 MOL       0.0592
     76 H36        19.2769   28.3367    9.7301 H           1 MOL       0.1260
@<TRIPOS>BOND
     1     1     2   2
     2     2     3  am
     3     2     6   1
     4     3     4   1
     5     4     5   1
     6     4     7   1
     7     5     6   1
     8     7     8   1
     9     8     9   1
    10     9    10   2
    11     9    11  am
    12    11    12   1
    13    12    13   1
    14    12    20   1
    15    13    14   1
    16    14    15  ar
    17    14    19  ar
    18    15    16  ar
    19    16    17  ar
    20    17    18  ar
    21    18    19  ar
    22    20    21   1
    23    20    22   1
    24    22    23   1
    25    23    24   1
    26    23    29  am
    27    24    25   1
    28    25    26   1
    29    25    27   1
    30    27    28   1
    31    29    30   2
    32    29    31   2
    33    29    32   1
    34    32    33  ar
    35    32    35  ar
    36    33    34  ar
    37    34    40  ar
    38    35    36  ar
    39    36    37   1
    40    36    40  ar
    41    37    38   1
    42    38    39   2
    43    39    40   1
    44     3    41   1
    45     4    42   1
    46     5    43   1
    47     5    44   1
    48     6    45   1
    49     6    46   1
    50     7    47   1
    51     7    48   1
    52    11    49   1
    53    12    50   1
    54    13    51   1
    55    13    52   1
    56    15    53   1
    57    16    54   1
    58    17    55   1
    59    18    56   1
    60    19    57   1
    61    20    58   1
    62    21    59   1
    63    22    60   1
    64    22    61   1
    65    24    62   1
    66    24    63   1
    67    25    64   1
    68    26    65   1
    69    26    66   1
    70    26    67   1
    71    27    68   1
    72    27    69   1
    73    28    70   1
    74    28    71   1
    75    28    72   1
    76    33    73   1
    77    34    74   1
    78    35    75   1
    79    38    76   1
@<TRIPOS>SUBSTRUCTURE
     1  MOL      2

