@<TRIPOS>MOLECULE
4djr_ligand_011
    76    79
SMALL
GAST_HUCK
****
This file was generated by PARSER (from files_GN.cpp)

@<TRIPOS>ATOM
      1 O28        24.9471   34.5979   15.1026 O.2         1 MOL      -0.3971
      2 C27        24.3120   33.5903   15.3684 C.2         1 MOL       0.1764
      3 N29        24.5890   32.4228   14.8476 N.am        1 MOL      -0.2812
      4 C24        23.6434   31.4097   15.1589 C.3         1 MOL       0.0716
      5 C25        22.8540   32.0719   16.3288 C.3         1 MOL      -0.0105
      6 C26        23.1568   33.5790   16.2151 C.3         1 MOL       0.0394
      7 C22        22.8508   30.9965   13.8790 C.3         1 MOL       0.1003
      8 O23        21.4607   30.7914   14.1660 O.3         1 MOL      -0.2616
      9 C21        20.4077   31.4176   13.5837 C.2         1 MOL       0.3200
     10 O22        20.5775   32.2872   12.5574 O.2         1 MOL      -0.3775
     11 N20        19.2050   31.2132   14.1517 N.am        1 MOL      -0.2550
     12 C19        17.9749   31.8345   13.7581 C.3         1 MOL       0.0807
     13 C32        16.8087   30.8093   13.9119 C.3         1 MOL       0.0064
     14 C38        17.0081   29.5243   13.1748 C.ar        1 MOL      -0.0408
     15 C37        17.0741   29.4999   11.7615 C.ar        1 MOL      -0.0603
     16 C36        17.2247   28.2845   11.0661 C.ar        1 MOL      -0.0686
     17 C35        17.3112   27.0737   11.7766 C.ar        1 MOL      -0.0687
     18 C34        17.2579   27.0783   13.1822 C.ar        1 MOL      -0.0686
     19 C33        17.1052   28.2940   13.8734 C.ar        1 MOL      -0.0603
     20 C17        17.7881   33.1754   14.5529 C.3         1 MOL       0.0967
     21 O18        19.0330   33.8848   14.5039 O.3         1 MOL      -0.3877
     22 C16        17.3463   33.0079   16.0428 C.3         1 MOL       0.0579
     23 N11        17.4413   34.2039   16.8794 N.am        1 MOL      -0.2317
     24 C12        18.5733   34.2489   17.7962 C.3         1 MOL       0.0322
     25 C13        18.8775   35.5064   18.6792 C.3         1 MOL      -0.0270
     26 C14        19.8229   35.0990   19.8598 C.3         1 MOL      -0.0610
     27 C15        19.4911   36.6726   17.8305 C.3         1 MOL      -0.0518
     28 C18        19.9306   37.9032   18.6786 C.3         1 MOL      -0.0650
     29 S8         15.9804   34.9742   17.3008 S.o2        1 MOL       0.0679
     30 O10        15.3483   34.1465   18.5037 O.2         1 MOL      -0.1506
     31 O9         14.9393   34.7631   16.1089 O.2         1 MOL      -0.1506
     32 C5         15.8852   36.6782   17.6494 C.ar        1 MOL       0.1007
     33 C6         16.0417   37.6332   16.6132 C.ar        1 MOL      -0.0433
     34 C7         15.9515   39.0172   16.8905 C.ar        1 MOL      -0.0517
     35 C4         15.6168   37.1157   18.9653 C.ar        1 MOL      -0.0206
     36 C3         15.5744   38.4905   19.2230 C.ar        1 MOL       0.0595
     37 S1         15.3013   39.3461   20.6811 S.3         1 MOL       0.0026
     38 C1         15.4226   40.8975   19.9454 C.2         1 MOL       0.0809
     39 N1         15.6565   40.7379   18.6217 N.2         1 MOL      -0.2931
     40 C2         15.7398   39.4459   18.2107 C.ar        1 MOL       0.0375
     41 H1         25.3125   32.3065   14.2093 H           1 MOL       0.1855
     42 H2         24.1670   30.5340   15.5490 H           1 MOL       0.0584
     43 H3         23.2394   31.6971   17.2866 H           1 MOL       0.0313
     44 H4         21.7778   31.8829   16.3100 H           1 MOL       0.0313
     45 H5         22.3310   34.1123   15.7355 H           1 MOL       0.0503
     46 H6         23.3662   34.0173   17.1950 H           1 MOL       0.0503
     47 H7         23.2581   30.0546   13.4988 H           1 MOL       0.0634
     48 H8         22.9817   31.7481   13.0900 H           1 MOL       0.0634
     49 H9         19.1768   30.6434   14.9353 H           1 MOL       0.1873
     50 H10        18.0103   32.1104   12.6985 H           1 MOL       0.0604
     51 H11        15.8809   31.2621   13.5606 H           1 MOL       0.0449
     52 H12        16.6690   30.5958   14.9711 H           1 MOL       0.0449
     53 H13        17.0041   30.3649   11.2268 H           1 MOL       0.0557
     54 H14        17.2653   28.2771   10.0455 H           1 MOL       0.0599
     55 H15        17.4165   26.1865   11.2723 H           1 MOL       0.0559
     56 H16        17.3250   26.1975   13.7000 H           1 MOL       0.0599
     57 H17        17.0621   28.2746   14.8948 H           1 MOL       0.0557
     58 H18        17.0435   33.7923   14.0334 H           1 MOL       0.0634
     59 H19        18.8257   34.8395   14.4123 H           1 MOL       0.2100
     60 H20        17.9459   32.1948   16.4695 H           1 MOL       0.0504
     61 H21        16.3206   32.6292   16.0578 H           1 MOL       0.0504
     62 H22        19.4855   34.0542   17.2098 H           1 MOL       0.0481
     63 H23        18.4358   33.4037   18.4779 H           1 MOL       0.0481
     64 H24        17.9335   35.8473   19.1223 H           1 MOL       0.0314
     65 H25        19.9406   35.9396   20.5569 H           1 MOL       0.0233
     66 H26        20.8109   34.8020   19.4773 H           1 MOL       0.0233
     67 H27        19.3873   34.2579   20.4150 H           1 MOL       0.0233
     68 H28        18.7474   37.0251   17.0997 H           1 MOL       0.0266
     69 H29        20.3622   36.3085   17.2651 H           1 MOL       0.0266
     70 H30        20.2076   38.7305   18.0101 H           1 MOL       0.0230
     71 H31        20.7986   37.6501   19.3010 H           1 MOL       0.0230
     72 H32        19.1123   38.2405   19.3301 H           1 MOL       0.0230
     73 H33        16.2070   37.3342   15.6508 H           1 MOL       0.0580
     74 H34        16.0733   39.7029   16.1426 H           1 MOL       0.0584
     75 H35        15.5095   36.4568   19.7326 H           1 MOL       0.0592
     76 H36        15.3315   41.7897   20.4325 H           1 MOL       0.1260
@<TRIPOS>BOND
     1     1     2   2
     2     2     3  am
     3     2     6   1
     4     3     4   1
     5     4     5   1
     6     4     7   1
     7     5     6   1
     8     7     8   1
     9     8     9   1
    10     9    10   2
    11     9    11  am
    12    11    12   1
    13    12    13   1
    14    12    20   1
    15    13    14   1
    16    14    15  ar
    17    14    19  ar
    18    15    16  ar
    19    16    17  ar
    20    17    18  ar
    21    18    19  ar
    22    20    21   1
    23    20    22   1
    24    22    23   1
    25    23    24   1
    26    23    29  am
    27    24    25   1
    28    25    26   1
    29    25    27   1
    30    27    28   1
    31    29    30   2
    32    29    31   2
    33    29    32   1
    34    32    33  ar
    35    32    35  ar
    36    33    34  ar
    37    34    40  ar
    38    35    36  ar
    39    36    37   1
    40    36    40  ar
    41    37    38   1
    42    38    39   2
    43    39    40   1
    44     3    41   1
    45     4    42   1
    46     5    43   1
    47     5    44   1
    48     6    45   1
    49     6    46   1
    50     7    47   1
    51     7    48   1
    52    11    49   1
    53    12    50   1
    54    13    51   1
    55    13    52   1
    56    15    53   1
    57    16    54   1
    58    17    55   1
    59    18    56   1
    60    19    57   1
    61    20    58   1
    62    21    59   1
    63    22    60   1
    64    22    61   1
    65    24    62   1
    66    24    63   1
    67    25    64   1
    68    26    65   1
    69    26    66   1
    70    26    67   1
    71    27    68   1
    72    27    69   1
    73    28    70   1
    74    28    71   1
    75    28    72   1
    76    33    73   1
    77    34    74   1
    78    35    75   1
    79    38    76   1
@<TRIPOS>SUBSTRUCTURE
     1  MOL      2

