@<TRIPOS>MOLECULE
4djr_ligand_048
    76    79
SMALL
GAST_HUCK
****
This file was generated by PARSER (from files_GN.cpp)

@<TRIPOS>ATOM
      1 O28        13.8132   42.2712   17.8513 O.2         1 MOL      -0.3971
      2 C27        14.7214   42.3669   17.0400 C.2         1 MOL       0.1764
      3 N29        15.3767   41.3294   16.5893 N.am        1 MOL      -0.2812
      4 C24        16.3955   41.6392   15.6584 C.3         1 MOL       0.0716
      5 C25        16.3047   43.1834   15.5278 C.3         1 MOL      -0.0105
      6 C26        15.1572   43.6050   16.4711 C.3         1 MOL       0.0394
      7 C22        17.7697   41.1156   16.1462 C.3         1 MOL       0.1003
      8 O23        17.7760   39.6827   16.1837 O.3         1 MOL      -0.2616
      9 C21        17.5395   38.8650   17.2414 C.2         1 MOL       0.3200
     10 O22        17.2085   39.3763   18.4505 O.2         1 MOL      -0.3775
     11 N20        17.6268   37.5364   17.0148 N.am        1 MOL      -0.2550
     12 C19        17.3529   36.4805   17.9531 C.3         1 MOL       0.0807
     13 C32        16.1374   35.6409   17.4439 C.3         1 MOL       0.0064
     14 C38        16.3996   34.8178   16.2286 C.ar        1 MOL      -0.0408
     15 C37        16.5948   33.4177   16.3255 C.ar        1 MOL      -0.0603
     16 C36        16.8959   32.6506   15.1849 C.ar        1 MOL      -0.0686
     17 C35        17.0050   33.2728   13.9288 C.ar        1 MOL      -0.0687
     18 C34        16.7882   34.6577   13.8117 C.ar        1 MOL      -0.0686
     19 C33        16.4741   35.4209   14.9499 C.ar        1 MOL      -0.0603
     20 C17        18.6563   35.6520   18.2066 C.3         1 MOL       0.0967
     21 O18        18.3232   34.4570   18.9203 O.3         1 MOL      -0.3877
     22 C16        19.7198   36.4491   19.0226 C.3         1 MOL       0.0579
     23 N11        21.0917   36.1467   18.6717 N.am        1 MOL      -0.2317
     24 C12        21.7983   35.0616   19.3160 C.3         1 MOL       0.0322
     25 C13        22.1884   35.3822   20.8023 C.3         1 MOL      -0.0270
     26 C14        21.8265   34.2031   21.7483 C.3         1 MOL      -0.0610
     27 C15        23.6479   35.9183   20.9700 C.3         1 MOL      -0.0518
     28 C18        24.7631   34.8617   21.1417 C.3         1 MOL      -0.0650
     29 S8         21.8475   37.1175   17.5023 S.o2        1 MOL       0.0679
     30 O10        21.2968   36.7518   16.0556 O.2         1 MOL      -0.1506
     31 O9         23.4077   36.8186   17.4331 O.2         1 MOL      -0.1506
     32 C5         21.7272   38.8265   17.8329 C.ar        1 MOL       0.1007
     33 C6         21.5178   39.7537   16.7825 C.ar        1 MOL      -0.0433
     34 C7         21.3975   41.1337   17.0512 C.ar        1 MOL      -0.0517
     35 C4         21.8112   39.2883   19.1665 C.ar        1 MOL      -0.0206
     36 C3         21.6834   40.6635   19.4121 C.ar        1 MOL       0.0595
     37 S1         21.7385   41.5524   20.8770 S.3         1 MOL       0.0026
     38 C1         21.5050   43.0743   20.1093 C.2         1 MOL       0.0809
     39 N1         21.3858   42.8853   18.7767 N.2         1 MOL      -0.2931
     40 C2         21.4795   41.5903   18.3779 C.ar        1 MOL       0.0375
     41 H1         15.1761   40.4202   16.8647 H           1 MOL       0.1855
     42 H2         16.1510   41.1655   14.7029 H           1 MOL       0.0584
     43 H3         16.0755   43.4667   14.4969 H           1 MOL       0.0313
     44 H4         17.2361   43.6772   15.8201 H           1 MOL       0.0313
     45 H5         15.5122   44.2811   17.2528 H           1 MOL       0.0503
     46 H6         14.3407   44.0768   15.9178 H           1 MOL       0.0503
     47 H7         18.0166   41.5378   17.1243 H           1 MOL       0.0634
     48 H8         18.5424   41.4267   15.4399 H           1 MOL       0.0634
     49 H9         17.8944   37.2696   16.1190 H           1 MOL       0.1873
     50 H10        17.0479   36.8979   18.9193 H           1 MOL       0.0604
     51 H11        15.2978   36.3121   17.2393 H           1 MOL       0.0449
     52 H12        15.8081   34.9969   18.2640 H           1 MOL       0.0449
     53 H13        16.5323   32.9461   17.2314 H           1 MOL       0.0557
     54 H14        17.0410   31.6418   15.2688 H           1 MOL       0.0599
     55 H15        17.2350   32.7164   13.1024 H           1 MOL       0.0559
     56 H16        16.8615   35.1138   12.9008 H           1 MOL       0.0599
     57 H17        16.3040   36.4230   14.8360 H           1 MOL       0.0557
     58 H18        19.0744   35.3551   17.2416 H           1 MOL       0.0634
     59 H19        19.1162   33.8799   18.9123 H           1 MOL       0.2100
     60 H20        19.5467   36.2596   20.0835 H           1 MOL       0.0504
     61 H21        19.5464   37.5200   18.9100 H           1 MOL       0.0504
     62 H22        22.6906   34.7789   18.7551 H           1 MOL       0.0481
     63 H23        21.1548   34.1809   19.2683 H           1 MOL       0.0481
     64 H24        21.5572   36.2061   21.1371 H           1 MOL       0.0314
     65 H25        22.1693   34.3940   22.7635 H           1 MOL       0.0233
     66 H26        22.2791   33.2773   21.4012 H           1 MOL       0.0233
     67 H27        20.7442   34.0626   21.7743 H           1 MOL       0.0233
     68 H28        23.6806   36.5705   21.8485 H           1 MOL       0.0266
     69 H29        23.9018   36.5426   20.1109 H           1 MOL       0.0266
     70 H30        25.7406   35.3461   21.1270 H           1 MOL       0.0230
     71 H31        24.7278   34.1273   20.3402 H           1 MOL       0.0230
     72 H32        24.6551   34.3515   22.0991 H           1 MOL       0.0230
     73 H33        21.4531   39.4342   15.8136 H           1 MOL       0.0580
     74 H34        21.2533   41.7968   16.2873 H           1 MOL       0.0584
     75 H35        21.9542   38.6460   19.9479 H           1 MOL       0.0592
     76 H36        21.4686   43.9766   20.5842 H           1 MOL       0.1260
@<TRIPOS>BOND
     1     1     2   2
     2     2     3  am
     3     2     6   1
     4     3     4   1
     5     4     5   1
     6     4     7   1
     7     5     6   1
     8     7     8   1
     9     8     9   1
    10     9    10   2
    11     9    11  am
    12    11    12   1
    13    12    13   1
    14    12    20   1
    15    13    14   1
    16    14    15  ar
    17    14    19  ar
    18    15    16  ar
    19    16    17  ar
    20    17    18  ar
    21    18    19  ar
    22    20    21   1
    23    20    22   1
    24    22    23   1
    25    23    24   1
    26    23    29  am
    27    24    25   1
    28    25    26   1
    29    25    27   1
    30    27    28   1
    31    29    30   2
    32    29    31   2
    33    29    32   1
    34    32    33  ar
    35    32    35  ar
    36    33    34  ar
    37    34    40  ar
    38    35    36  ar
    39    36    37   1
    40    36    40  ar
    41    37    38   1
    42    38    39   2
    43    39    40   1
    44     3    41   1
    45     4    42   1
    46     5    43   1
    47     5    44   1
    48     6    45   1
    49     6    46   1
    50     7    47   1
    51     7    48   1
    52    11    49   1
    53    12    50   1
    54    13    51   1
    55    13    52   1
    56    15    53   1
    57    16    54   1
    58    17    55   1
    59    18    56   1
    60    19    57   1
    61    20    58   1
    62    21    59   1
    63    22    60   1
    64    22    61   1
    65    24    62   1
    66    24    63   1
    67    25    64   1
    68    26    65   1
    69    26    66   1
    70    26    67   1
    71    27    68   1
    72    27    69   1
    73    28    70   1
    74    28    71   1
    75    28    72   1
    76    33    73   1
    77    34    74   1
    78    35    75   1
    79    38    76   1
@<TRIPOS>SUBSTRUCTURE
     1  MOL      2

