@<TRIPOS>MOLECULE
4djr_ligand_066
    76    79
SMALL
GAST_HUCK
****
This file was generated by PARSER (from files_GN.cpp)

@<TRIPOS>ATOM
      1 O28        14.0601   41.5447   20.3424 O.2         1 MOL      -0.3971
      2 C27        14.7646   40.9852   19.5177 C.2         1 MOL       0.1764
      3 N29        14.4471   39.8443   18.9626 N.am        1 MOL      -0.2812
      4 C24        15.4293   39.3311   18.0809 C.3         1 MOL       0.0716
      5 C25        16.4907   40.4643   18.0342 C.3         1 MOL      -0.0105
      6 C26        16.0562   41.4652   19.1243 C.3         1 MOL       0.0394
      7 C22        15.9561   37.9697   18.5992 C.3         1 MOL       0.1003
      8 O23        17.0036   37.4607   17.7527 O.3         1 MOL      -0.2616
      9 C21        17.7326   36.3401   18.0043 C.2         1 MOL       0.3200
     10 O22        17.5058   35.6468   19.1458 O.2         1 MOL      -0.3775
     11 N20        18.6745   35.9689   17.0992 N.am        1 MOL      -0.2550
     12 C19        19.5637   34.8303   17.1611 C.3         1 MOL       0.0807
     13 C32        20.5106   34.9200   18.4100 C.3         1 MOL       0.0064
     14 C38        21.3858   36.1332   18.4463 C.ar        1 MOL      -0.0408
     15 C37        21.3275   37.0650   19.5135 C.ar        1 MOL      -0.0603
     16 C36        22.2157   38.1584   19.5688 C.ar        1 MOL      -0.0686
     17 C35        23.1727   38.3441   18.5560 C.ar        1 MOL      -0.0687
     18 C34        23.2380   37.4365   17.4833 C.ar        1 MOL      -0.0686
     19 C33        22.3468   36.3483   17.4262 C.ar        1 MOL      -0.0603
     20 C17        18.7757   33.4783   16.9755 C.3         1 MOL       0.0967
     21 O18        17.8319   33.3367   18.0424 O.3         1 MOL      -0.3877
     22 C16        19.6077   32.1529   16.8788 C.3         1 MOL       0.0579
     23 N11        19.8867   31.6499   15.5419 N.am        1 MOL      -0.2317
     24 C12        18.8647   30.9027   14.8085 C.3         1 MOL       0.0322
     25 C13        18.1952   31.5454   13.5486 C.3         1 MOL      -0.0270
     26 C14        19.1933   32.3930   12.7107 C.3         1 MOL      -0.0610
     27 C15        17.4405   30.5272   12.6024 C.3         1 MOL      -0.0518
     28 C18        17.3895   29.0301   13.0031 C.3         1 MOL      -0.0650
     29 S8         21.4960   31.6206   14.9751 S.o2        1 MOL       0.0679
     30 O10        22.5343   31.5610   16.1788 O.2         1 MOL      -0.1506
     31 O9         21.8495   32.9674   14.1993 O.2         1 MOL      -0.1506
     32 C5         21.8845   30.2090   14.0209 C.ar        1 MOL       0.1007
     33 C6         21.6509   28.9168   14.5509 C.ar        1 MOL      -0.0433
     34 C7         21.7686   27.7707   13.7376 C.ar        1 MOL      -0.0517
     35 C4         22.2657   30.3475   12.6677 C.ar        1 MOL      -0.0206
     36 C3         22.3809   29.1920   11.8808 C.ar        1 MOL       0.0595
     37 S1         22.7508   29.0005   10.2178 S.3         1 MOL       0.0026
     38 C1         22.5842   27.2906   10.2408 C.2         1 MOL       0.0809
     39 N1         22.2460   26.9015   11.4911 N.2         1 MOL      -0.2931
     40 C2         22.1358   27.9126   12.3900 C.ar        1 MOL       0.0375
     41 H1         13.6312   39.3586   19.1791 H           1 MOL       0.1855
     42 H2         14.9811   39.1868   17.0920 H           1 MOL       0.0584
     43 H3         16.4720   40.9473   17.0516 H           1 MOL       0.0313
     44 H4         17.5045   40.0964   18.2188 H           1 MOL       0.0313
     45 H5         16.7421   41.4496   19.9746 H           1 MOL       0.0503
     46 H6         15.9829   42.4806   18.7246 H           1 MOL       0.0503
     47 H7         15.1289   37.2488   18.6066 H           1 MOL       0.0634
     48 H8         16.3295   38.0814   19.6250 H           1 MOL       0.0634
     49 H9         18.7659   36.5454   16.3180 H           1 MOL       0.1873
     50 H10        20.2038   34.9168   16.2804 H           1 MOL       0.0604
     51 H11        21.1739   34.0541   18.4337 H           1 MOL       0.0449
     52 H12        19.9106   34.8629   19.3214 H           1 MOL       0.0449
     53 H13        20.6536   36.9401   20.2751 H           1 MOL       0.0557
     54 H14        22.1711   38.8163   20.3513 H           1 MOL       0.0599
     55 H15        23.8320   39.1240   18.6114 H           1 MOL       0.0559
     56 H16        23.9409   37.5678   16.7512 H           1 MOL       0.0599
     57 H17        22.4322   35.6905   16.6466 H           1 MOL       0.0557
     58 H18        18.1821   33.5719   16.0586 H           1 MOL       0.0634
     59 H19        17.1281   32.7587   17.6720 H           1 MOL       0.2100
     60 H20        19.0669   31.3742   17.4223 H           1 MOL       0.0504
     61 H21        20.5213   32.2783   17.4553 H           1 MOL       0.0504
     62 H22        18.0447   30.6394   15.4921 H           1 MOL       0.0481
     63 H23        19.2779   29.9436   14.4981 H           1 MOL       0.0481
     64 H24        17.4372   32.2490   13.9291 H           1 MOL       0.0314
     65 H25        18.6821   32.8481   11.8595 H           1 MOL       0.0233
     66 H26        20.0026   31.7566   12.3369 H           1 MOL       0.0233
     67 H27        19.6135   33.1991   13.3186 H           1 MOL       0.0233
     68 H28        17.8710   30.5569   11.5896 H           1 MOL       0.0266
     69 H29        16.4008   30.8637   12.5039 H           1 MOL       0.0266
     70 H30        16.6823   28.4957   12.3547 H           1 MOL       0.0230
     71 H31        17.0651   28.9216   14.0411 H           1 MOL       0.0230
     72 H32        18.3729   28.5686   12.8809 H           1 MOL       0.0230
     73 H33        21.3260   28.8042   15.5149 H           1 MOL       0.0580
     74 H34        21.5481   26.8540   14.1147 H           1 MOL       0.0584
     75 H35        22.4118   31.2631   12.2469 H           1 MOL       0.0592
     76 H36        22.7024   26.6726    9.4352 H           1 MOL       0.1260
@<TRIPOS>BOND
     1     1     2   2
     2     2     3  am
     3     2     6   1
     4     3     4   1
     5     4     5   1
     6     4     7   1
     7     5     6   1
     8     7     8   1
     9     8     9   1
    10     9    10   2
    11     9    11  am
    12    11    12   1
    13    12    13   1
    14    12    20   1
    15    13    14   1
    16    14    15  ar
    17    14    19  ar
    18    15    16  ar
    19    16    17  ar
    20    17    18  ar
    21    18    19  ar
    22    20    21   1
    23    20    22   1
    24    22    23   1
    25    23    24   1
    26    23    29  am
    27    24    25   1
    28    25    26   1
    29    25    27   1
    30    27    28   1
    31    29    30   2
    32    29    31   2
    33    29    32   1
    34    32    33  ar
    35    32    35  ar
    36    33    34  ar
    37    34    40  ar
    38    35    36  ar
    39    36    37   1
    40    36    40  ar
    41    37    38   1
    42    38    39   2
    43    39    40   1
    44     3    41   1
    45     4    42   1
    46     5    43   1
    47     5    44   1
    48     6    45   1
    49     6    46   1
    50     7    47   1
    51     7    48   1
    52    11    49   1
    53    12    50   1
    54    13    51   1
    55    13    52   1
    56    15    53   1
    57    16    54   1
    58    17    55   1
    59    18    56   1
    60    19    57   1
    61    20    58   1
    62    21    59   1
    63    22    60   1
    64    22    61   1
    65    24    62   1
    66    24    63   1
    67    25    64   1
    68    26    65   1
    69    26    66   1
    70    26    67   1
    71    27    68   1
    72    27    69   1
    73    28    70   1
    74    28    71   1
    75    28    72   1
    76    33    73   1
    77    34    74   1
    78    35    75   1
    79    38    76   1
@<TRIPOS>SUBSTRUCTURE
     1  MOL      2

