@<TRIPOS>MOLECULE
4djr_ligand_020
    76    79
SMALL
GAST_HUCK
****
This file was generated by PARSER (from files_GN.cpp)

@<TRIPOS>ATOM
      1 O28        17.5700   40.1665   15.9203 O.2         1 MOL      -0.3971
      2 C27        18.7278   40.5033   15.7151 C.2         1 MOL       0.1764
      3 N29        19.6546   39.6573   15.3439 N.am        1 MOL      -0.2812
      4 C24        20.9497   40.2185   15.2486 C.3         1 MOL       0.0716
      5 C25        20.6720   41.7374   15.4211 C.3         1 MOL      -0.0105
      6 C26        19.2365   41.8150   15.9811 C.3         1 MOL       0.0394
      7 C22        21.9335   39.6693   16.3154 C.3         1 MOL       0.1003
      8 O23        21.9152   38.2492   16.4996 O.3         1 MOL      -0.2616
      9 C21        20.9636   37.5561   17.1749 C.2         1 MOL       0.3200
     10 O22        19.8732   38.1770   17.7006 O.2         1 MOL      -0.3775
     11 N20        21.2304   36.2531   17.4300 N.am        1 MOL      -0.2550
     12 C19        20.5286   35.3857   18.3464 C.3         1 MOL       0.0807
     13 C32        20.5386   35.9390   19.8130 C.3         1 MOL       0.0064
     14 C38        21.9156   36.1656   20.3427 C.ar        1 MOL      -0.0408
     15 C37        22.5887   37.3953   20.1401 C.ar        1 MOL      -0.0603
     16 C36        23.8801   37.6027   20.6567 C.ar        1 MOL      -0.0686
     17 C35        24.5174   36.5842   21.3844 C.ar        1 MOL      -0.0687
     18 C34        23.8608   35.3598   21.5998 C.ar        1 MOL      -0.0686
     19 C33        22.5702   35.1513   21.0808 C.ar        1 MOL      -0.0603
     20 C17        19.0930   35.0120   17.8465 C.3         1 MOL       0.0967
     21 O18        18.4531   34.1612   18.8039 O.3         1 MOL      -0.3877
     22 C16        19.0686   34.3463   16.4220 C.3         1 MOL       0.0579
     23 N11        18.0441   33.3394   16.2120 N.am        1 MOL      -0.2317
     24 C12        16.6457   33.5938   16.5186 C.3         1 MOL       0.0322
     25 C13        16.0358   34.9361   15.9912 C.3         1 MOL      -0.0270
     26 C14        16.2458   35.0931   14.4530 C.3         1 MOL      -0.0610
     27 C15        14.5102   35.0412   16.3166 C.3         1 MOL      -0.0518
     28 C18        14.0822   34.7492   17.7762 C.3         1 MOL      -0.0650
     29 S8         18.5141   31.7175   16.0067 S.o2        1 MOL       0.0679
     30 O10        17.6485   30.8294   17.0027 O.2         1 MOL      -0.1506
     31 O9         19.9732   31.4535   16.5873 O.2         1 MOL      -0.1506
     32 C5         18.3259   31.0234   14.4126 C.ar        1 MOL       0.1007
     33 C6         17.0476   30.9854   13.8006 C.ar        1 MOL      -0.0433
     34 C7         16.8594   30.3582   12.5494 C.ar        1 MOL      -0.0517
     35 C4         19.4302   30.4296   13.7569 C.ar        1 MOL      -0.0206
     36 C3         19.2213   29.8069   12.5171 C.ar        1 MOL       0.0595
     37 S1         20.3027   28.9702   11.4805 S.3         1 MOL       0.0026
     38 C1         19.0967   28.6060   10.3104 C.2         1 MOL       0.0809
     39 N1         17.9119   29.1119   10.7154 N.2         1 MOL      -0.2931
     40 C2         17.9556   29.7621   11.9063 C.ar        1 MOL       0.0375
     41 H1         19.4702   38.7212   15.1596 H           1 MOL       0.1855
     42 H2         21.3445   40.0170   14.2496 H           1 MOL       0.0584
     43 H3         20.7205   42.2383   14.4496 H           1 MOL       0.0313
     44 H4         21.3805   42.2337   16.0905 H           1 MOL       0.0313
     45 H5         19.2369   42.0013   17.0588 H           1 MOL       0.0503
     46 H6         18.6476   42.5807   15.4730 H           1 MOL       0.0503
     47 H7         21.7591   40.1573   17.2815 H           1 MOL       0.0634
     48 H8         22.9450   39.9375   16.0090 H           1 MOL       0.0634
     49 H9         22.0349   35.8751   17.0274 H           1 MOL       0.1873
     50 H10        21.0903   34.4439   18.3560 H           1 MOL       0.0604
     51 H11        20.0192   35.2345   20.4753 H           1 MOL       0.0449
     52 H12        19.9607   36.8651   19.8657 H           1 MOL       0.0449
     53 H13        22.1380   38.1540   19.6191 H           1 MOL       0.0557
     54 H14        24.3488   38.4984   20.5111 H           1 MOL       0.0599
     55 H15        25.4511   36.7388   21.7658 H           1 MOL       0.0559
     56 H16        24.3179   34.6250   22.1422 H           1 MOL       0.0599
     57 H17        22.1015   34.2582   21.2524 H           1 MOL       0.0557
     58 H18        18.4792   35.9183   17.7985 H           1 MOL       0.0634
     59 H19        18.9456   33.3085   18.7593 H           1 MOL       0.2100
     60 H20        20.0576   33.9306   16.2056 H           1 MOL       0.0504
     61 H21        18.9313   35.1399   15.6778 H           1 MOL       0.0504
     62 H22        16.5506   33.5705   17.6093 H           1 MOL       0.0481
     63 H23        16.0102   32.7865   16.1307 H           1 MOL       0.0481
     64 H24        16.5405   35.7718   16.4879 H           1 MOL       0.0314
     65 H25        15.8572   36.0659   14.1221 H           1 MOL       0.0233
     66 H26        15.7244   34.2935   13.9112 H           1 MOL       0.0233
     67 H27        17.3082   35.0461   14.1948 H           1 MOL       0.0233
     68 H28        13.9554   34.3552   15.6661 H           1 MOL       0.0266
     69 H29        14.1833   36.0590   16.0857 H           1 MOL       0.0266
     70 H30        13.0311   35.0236   17.9047 H           1 MOL       0.0230
     71 H31        14.6875   35.3280   18.4794 H           1 MOL       0.0230
     72 H32        14.1846   33.6816   17.9957 H           1 MOL       0.0230
     73 H33        16.2318   31.3933   14.2695 H           1 MOL       0.0580
     74 H34        15.9316   30.3210   12.1301 H           1 MOL       0.0584
     75 H35        20.3612   30.4257   14.1741 H           1 MOL       0.0592
     76 H36        19.2534   28.0873    9.4446 H           1 MOL       0.1260
@<TRIPOS>BOND
     1     1     2   2
     2     2     3  am
     3     2     6   1
     4     3     4   1
     5     4     5   1
     6     4     7   1
     7     5     6   1
     8     7     8   1
     9     8     9   1
    10     9    10   2
    11     9    11  am
    12    11    12   1
    13    12    13   1
    14    12    20   1
    15    13    14   1
    16    14    15  ar
    17    14    19  ar
    18    15    16  ar
    19    16    17  ar
    20    17    18  ar
    21    18    19  ar
    22    20    21   1
    23    20    22   1
    24    22    23   1
    25    23    24   1
    26    23    29  am
    27    24    25   1
    28    25    26   1
    29    25    27   1
    30    27    28   1
    31    29    30   2
    32    29    31   2
    33    29    32   1
    34    32    33  ar
    35    32    35  ar
    36    33    34  ar
    37    34    40  ar
    38    35    36  ar
    39    36    37   1
    40    36    40  ar
    41    37    38   1
    42    38    39   2
    43    39    40   1
    44     3    41   1
    45     4    42   1
    46     5    43   1
    47     5    44   1
    48     6    45   1
    49     6    46   1
    50     7    47   1
    51     7    48   1
    52    11    49   1
    53    12    50   1
    54    13    51   1
    55    13    52   1
    56    15    53   1
    57    16    54   1
    58    17    55   1
    59    18    56   1
    60    19    57   1
    61    20    58   1
    62    21    59   1
    63    22    60   1
    64    22    61   1
    65    24    62   1
    66    24    63   1
    67    25    64   1
    68    26    65   1
    69    26    66   1
    70    26    67   1
    71    27    68   1
    72    27    69   1
    73    28    70   1
    74    28    71   1
    75    28    72   1
    76    33    73   1
    77    34    74   1
    78    35    75   1
    79    38    76   1
@<TRIPOS>SUBSTRUCTURE
     1  MOL      2

