@<TRIPOS>MOLECULE
4djr_ligand_087
    76    79
SMALL
GAST_HUCK
****
This file was generated by PARSER (from files_GN.cpp)

@<TRIPOS>ATOM
      1 O28        23.1640   37.1251   17.6491 O.2         1 MOL      -0.3971
      2 C27        22.4922   36.5497   18.4918 C.2         1 MOL       0.1764
      3 N29        21.6944   35.5534   18.1955 N.am        1 MOL      -0.2812
      4 C24        21.0711   34.9565   19.3186 C.3         1 MOL       0.0716
      5 C25        21.4618   35.9062   20.4795 C.3         1 MOL      -0.0105
      6 C26        22.5683   36.8128   19.8950 C.3         1 MOL       0.0394
      7 C22        19.5479   34.7501   19.1190 C.3         1 MOL       0.1003
      8 O23        18.8699   35.9671   18.7773 O.3         1 MOL      -0.2616
      9 C21        17.5359   36.2346   18.7968 C.2         1 MOL       0.3200
     10 O22        16.6326   35.3038   19.1798 O.2         1 MOL      -0.3775
     11 N20        17.1660   37.4194   18.2731 N.am        1 MOL      -0.2550
     12 C19        15.8394   37.8721   17.9526 C.3         1 MOL       0.0807
     13 C32        14.8024   36.7299   17.6826 C.3         1 MOL       0.0064
     14 C38        15.1780   35.6857   16.6897 C.ar        1 MOL      -0.0408
     15 C37        14.7164   34.3532   16.8307 C.ar        1 MOL      -0.0603
     16 C36        15.0729   33.3609   15.8965 C.ar        1 MOL      -0.0686
     17 C35        15.9053   33.6849   14.8104 C.ar        1 MOL      -0.0687
     18 C34        16.3468   35.0079   14.6366 C.ar        1 MOL      -0.0686
     19 C33        15.9720   36.0049   15.5607 C.ar        1 MOL      -0.0603
     20 C17        15.2902   38.9329   18.9630 C.3         1 MOL       0.0967
     21 O18        14.1059   39.5460   18.4468 O.3         1 MOL      -0.3877
     22 C16        16.2737   40.0753   19.3491 C.3         1 MOL       0.0579
     23 N11        17.0640   40.6699   18.2876 N.am        1 MOL      -0.2317
     24 C12        18.4882   40.8628   18.4684 C.3         1 MOL       0.0322
     25 C13        18.8952   42.1872   19.2011 C.3         1 MOL      -0.0270
     26 C14        18.3908   42.2775   20.6701 C.3         1 MOL      -0.0610
     27 C15        20.4293   42.4795   19.0967 C.3         1 MOL      -0.0518
     28 C18        21.3594   41.5820   19.9498 C.3         1 MOL      -0.0650
     29 S8         16.2964   41.4204   16.9652 S.o2        1 MOL       0.0679
     30 O10        15.2403   40.4322   16.3059 O.2         1 MOL      -0.1506
     31 O9         17.3243   41.5935   15.7621 O.2         1 MOL      -0.1506
     32 C5         15.4998   42.9403   17.2745 C.ar        1 MOL       0.1007
     33 C6         14.4255   42.9859   18.1983 C.ar        1 MOL      -0.0433
     34 C7         13.7306   44.1877   18.4396 C.ar        1 MOL      -0.0517
     35 C4         15.8824   44.1177   16.5893 C.ar        1 MOL      -0.0206
     36 C3         15.1714   45.3022   16.8381 C.ar        1 MOL       0.0595
     37 S1         15.3379   46.8787   16.1833 S.3         1 MOL       0.0026
     38 C1         14.0397   47.5390   17.1032 C.2         1 MOL       0.0809
     39 N1         13.5085   46.5680   17.8780 N.2         1 MOL      -0.2931
     40 C2         14.1052   45.3545   17.7516 C.ar        1 MOL       0.0375
     41 H1         21.5958   35.2055   17.2932 H           1 MOL       0.1855
     42 H2         21.5397   33.9776   19.4774 H           1 MOL       0.0584
     43 H3         21.8277   35.3453   21.3458 H           1 MOL       0.0313
     44 H4         20.6099   36.5198   20.7947 H           1 MOL       0.0313
     45 H5         22.3745   37.8662   20.1109 H           1 MOL       0.0503
     46 H6         23.5560   36.5347   20.2746 H           1 MOL       0.0503
     47 H7         19.1241   34.2873   20.0142 H           1 MOL       0.0634
     48 H8         19.4070   34.0610   18.2847 H           1 MOL       0.0634
     49 H9         17.8966   37.9960   17.9846 H           1 MOL       0.1873
     50 H10        15.9613   38.3936   17.0035 H           1 MOL       0.0604
     51 H11        13.8734   37.1833   17.3193 H           1 MOL       0.0449
     52 H12        14.5588   36.2548   18.6363 H           1 MOL       0.0449
     53 H13        14.1061   34.0964   17.6111 H           1 MOL       0.0557
     54 H14        14.7269   32.4035   16.0128 H           1 MOL       0.0599
     55 H15        16.1750   32.9582   14.1429 H           1 MOL       0.0559
     56 H16        16.9462   35.2441   13.8398 H           1 MOL       0.0599
     57 H17        16.3026   36.9575   15.4031 H           1 MOL       0.0557
     58 H18        15.0068   38.4092   19.8845 H           1 MOL       0.0634
     59 H19        13.3607   38.9859   18.7606 H           1 MOL       0.2100
     60 H20        16.9254   39.6692   20.1272 H           1 MOL       0.0504
     61 H21        15.7082   40.8713   19.8403 H           1 MOL       0.0504
     62 H22        18.9845   40.8432   17.4940 H           1 MOL       0.0481
     63 H23        18.8979   40.0064   19.0068 H           1 MOL       0.0481
     64 H24        18.3978   42.9998   18.6618 H           1 MOL       0.0314
     65 H25        18.7913   43.1667   21.1612 H           1 MOL       0.0233
     66 H26        18.6944   41.3983   21.2406 H           1 MOL       0.0233
     67 H27        17.3023   42.3531   20.6923 H           1 MOL       0.0233
     68 H28        20.6087   43.5149   19.3935 H           1 MOL       0.0266
     69 H29        20.7352   42.3908   18.0493 H           1 MOL       0.0266
     70 H30        22.4039   41.8281   19.7408 H           1 MOL       0.0230
     71 H31        21.2097   40.5271   19.7171 H           1 MOL       0.0230
     72 H32        21.1803   41.7382   21.0144 H           1 MOL       0.0230
     73 H33        14.1334   42.1407   18.6927 H           1 MOL       0.0580
     74 H34        12.9549   44.2093   19.1031 H           1 MOL       0.0584
     75 H35        16.6479   44.1195   15.9148 H           1 MOL       0.0592
     76 H36        13.7235   48.5068   17.0662 H           1 MOL       0.1260
@<TRIPOS>BOND
     1     1     2   2
     2     2     3  am
     3     2     6   1
     4     3     4   1
     5     4     5   1
     6     4     7   1
     7     5     6   1
     8     7     8   1
     9     8     9   1
    10     9    10   2
    11     9    11  am
    12    11    12   1
    13    12    13   1
    14    12    20   1
    15    13    14   1
    16    14    15  ar
    17    14    19  ar
    18    15    16  ar
    19    16    17  ar
    20    17    18  ar
    21    18    19  ar
    22    20    21   1
    23    20    22   1
    24    22    23   1
    25    23    24   1
    26    23    29  am
    27    24    25   1
    28    25    26   1
    29    25    27   1
    30    27    28   1
    31    29    30   2
    32    29    31   2
    33    29    32   1
    34    32    33  ar
    35    32    35  ar
    36    33    34  ar
    37    34    40  ar
    38    35    36  ar
    39    36    37   1
    40    36    40  ar
    41    37    38   1
    42    38    39   2
    43    39    40   1
    44     3    41   1
    45     4    42   1
    46     5    43   1
    47     5    44   1
    48     6    45   1
    49     6    46   1
    50     7    47   1
    51     7    48   1
    52    11    49   1
    53    12    50   1
    54    13    51   1
    55    13    52   1
    56    15    53   1
    57    16    54   1
    58    17    55   1
    59    18    56   1
    60    19    57   1
    61    20    58   1
    62    21    59   1
    63    22    60   1
    64    22    61   1
    65    24    62   1
    66    24    63   1
    67    25    64   1
    68    26    65   1
    69    26    66   1
    70    26    67   1
    71    27    68   1
    72    27    69   1
    73    28    70   1
    74    28    71   1
    75    28    72   1
    76    33    73   1
    77    34    74   1
    78    35    75   1
    79    38    76   1
@<TRIPOS>SUBSTRUCTURE
     1  MOL      2

