@<TRIPOS>MOLECULE
4djr_ligand_014
    76    79
SMALL
GAST_HUCK
****
This file was generated by PARSER (from files_GN.cpp)

@<TRIPOS>ATOM
      1 O28        14.1847   42.0017   20.1346 O.2         1 MOL      -0.3971
      2 C27        15.3843   42.1946   19.9828 C.2         1 MOL       0.1764
      3 N29        15.9481   42.2869   18.8026 N.am        1 MOL      -0.2812
      4 C24        17.3210   42.6422   18.8367 C.3         1 MOL       0.0716
      5 C25        17.6491   42.6188   20.3526 C.3         1 MOL      -0.0105
      6 C26        16.2865   42.4514   21.0618 C.3         1 MOL       0.0394
      7 C22        18.1975   41.7126   17.9580 C.3         1 MOL       0.1003
      8 O23        18.2268   40.3789   18.4863 O.3         1 MOL      -0.2616
      9 C21        17.9863   39.1943   17.8622 C.2         1 MOL       0.3200
     10 O22        17.6938   39.1523   16.5400 O.2         1 MOL      -0.3775
     11 N20        18.0548   38.0991   18.6500 N.am        1 MOL      -0.2550
     12 C19        17.7061   36.7238   18.3971 C.3         1 MOL       0.0807
     13 C32        16.8164   36.4347   17.1389 C.3         1 MOL       0.0064
     14 C38        16.0606   35.1463   17.1940 C.ar        1 MOL      -0.0408
     15 C37        16.6680   33.9137   16.8465 C.ar        1 MOL      -0.0603
     16 C36        15.9488   32.7043   16.9161 C.ar        1 MOL      -0.0686
     17 C35        14.5938   32.7126   17.2964 C.ar        1 MOL      -0.0687
     18 C34        13.9682   33.9291   17.6214 C.ar        1 MOL      -0.0686
     19 C33        14.6986   35.1303   17.5804 C.ar        1 MOL      -0.0603
     20 C17        18.9410   35.7529   18.5058 C.3         1 MOL       0.0967
     21 O18        18.5789   34.6713   19.3782 O.3         1 MOL      -0.3877
     22 C16        20.3083   36.3231   18.9951 C.3         1 MOL       0.0579
     23 N11        21.0042   37.2996   18.1827 N.am        1 MOL      -0.2317
     24 C12        20.9857   37.3015   16.7294 C.3         1 MOL       0.0322
     25 C13        21.9519   36.3347   15.9580 C.3         1 MOL      -0.0270
     26 C14        23.3502   36.2218   16.6309 C.3         1 MOL      -0.0610
     27 C15        21.3181   34.9386   15.6606 C.3         1 MOL      -0.0518
     28 C18        22.0851   34.0717   14.6322 C.3         1 MOL      -0.0650
     29 S8         21.9897   38.4157   19.0103 S.o2        1 MOL       0.0679
     30 O10        21.0627   39.5798   19.5760 O.2         1 MOL      -0.1506
     31 O9         22.8843   39.2456   17.9833 O.2         1 MOL      -0.1506
     32 C5         23.1338   37.9605   20.2493 C.ar        1 MOL       0.1007
     33 C6         23.1441   36.6630   20.8192 C.ar        1 MOL      -0.0433
     34 C7         24.0731   36.3231   21.8310 C.ar        1 MOL      -0.0517
     35 C4         24.0887   38.9141   20.6894 C.ar        1 MOL      -0.0206
     36 C3         25.0007   38.5549   21.6937 C.ar        1 MOL       0.0595
     37 S1         26.2437   39.4574   22.4539 S.3         1 MOL       0.0026
     38 C1         26.7259   38.1637   23.4808 C.2         1 MOL       0.0809
     39 N1         25.9495   37.0870   23.2313 N.2         1 MOL      -0.2931
     40 C2         25.0060   37.2794   22.2708 C.ar        1 MOL       0.0375
     41 H1         15.4433   42.2066   17.9795 H           1 MOL       0.1855
     42 H2         17.4126   43.6685   18.4564 H           1 MOL       0.0584
     43 H3         18.1330   43.5467   20.6664 H           1 MOL       0.0313
     44 H4         18.3109   41.7885   20.6168 H           1 MOL       0.0313
     45 H5         16.3014   41.6085   21.7619 H           1 MOL       0.0503
     46 H6         15.9944   43.3628   21.5905 H           1 MOL       0.0503
     47 H7         19.2214   42.0967   17.9463 H           1 MOL       0.0634
     48 H8         17.8238   41.7351   16.9274 H           1 MOL       0.0634
     49 H9         18.2960   38.2786   19.5747 H           1 MOL       0.1873
     50 H10        17.0533   36.5128   19.2519 H           1 MOL       0.0604
     51 H11        17.4373   36.4527   16.2371 H           1 MOL       0.0449
     52 H12        16.0935   37.2494   17.0301 H           1 MOL       0.0449
     53 H13        17.6393   33.8841   16.5343 H           1 MOL       0.0557
     54 H14        16.4057   31.8181   16.6799 H           1 MOL       0.0599
     55 H15        14.0670   31.8386   17.3411 H           1 MOL       0.0559
     56 H16        12.9779   33.9399   17.8825 H           1 MOL       0.0599
     57 H17        14.2201   35.9976   17.8297 H           1 MOL       0.0557
     58 H18        19.1306   35.3078   17.5318 H           1 MOL       0.0634
     59 H19        19.1724   33.9190   19.1609 H           1 MOL       0.2100
     60 H20        20.9906   35.4789   19.0949 H           1 MOL       0.0504
     61 H21        20.1480   36.7182   20.0059 H           1 MOL       0.0504
     62 H22        21.1880   38.3108   16.3650 H           1 MOL       0.0481
     63 H23        19.9647   37.1233   16.3909 H           1 MOL       0.0481
     64 H24        22.1224   36.7977   14.9809 H           1 MOL       0.0314
     65 H25        24.0582   35.7223   15.9606 H           1 MOL       0.0233
     66 H26        23.2822   35.6470   17.5569 H           1 MOL       0.0233
     67 H27        23.7457   37.2169   16.8583 H           1 MOL       0.0233
     68 H28        20.3104   35.0873   15.2584 H           1 MOL       0.0266
     69 H29        21.2273   34.3672   16.5871 H           1 MOL       0.0266
     70 H30        21.4787   33.2065   14.3593 H           1 MOL       0.0230
     71 H31        23.0207   33.7115   15.0559 H           1 MOL       0.0230
     72 H32        22.2990   34.6450   13.7260 H           1 MOL       0.0230
     73 H33        22.4671   35.9631   20.5149 H           1 MOL       0.0580
     74 H34        24.0726   35.3892   22.2435 H           1 MOL       0.0584
     75 H35        24.1193   39.8577   20.3003 H           1 MOL       0.0592
     76 H36        27.4786   38.1962   24.1702 H           1 MOL       0.1260
@<TRIPOS>BOND
     1     1     2   2
     2     2     3  am
     3     2     6   1
     4     3     4   1
     5     4     5   1
     6     4     7   1
     7     5     6   1
     8     7     8   1
     9     8     9   1
    10     9    10   2
    11     9    11  am
    12    11    12   1
    13    12    13   1
    14    12    20   1
    15    13    14   1
    16    14    15  ar
    17    14    19  ar
    18    15    16  ar
    19    16    17  ar
    20    17    18  ar
    21    18    19  ar
    22    20    21   1
    23    20    22   1
    24    22    23   1
    25    23    24   1
    26    23    29  am
    27    24    25   1
    28    25    26   1
    29    25    27   1
    30    27    28   1
    31    29    30   2
    32    29    31   2
    33    29    32   1
    34    32    33  ar
    35    32    35  ar
    36    33    34  ar
    37    34    40  ar
    38    35    36  ar
    39    36    37   1
    40    36    40  ar
    41    37    38   1
    42    38    39   2
    43    39    40   1
    44     3    41   1
    45     4    42   1
    46     5    43   1
    47     5    44   1
    48     6    45   1
    49     6    46   1
    50     7    47   1
    51     7    48   1
    52    11    49   1
    53    12    50   1
    54    13    51   1
    55    13    52   1
    56    15    53   1
    57    16    54   1
    58    17    55   1
    59    18    56   1
    60    19    57   1
    61    20    58   1
    62    21    59   1
    63    22    60   1
    64    22    61   1
    65    24    62   1
    66    24    63   1
    67    25    64   1
    68    26    65   1
    69    26    66   1
    70    26    67   1
    71    27    68   1
    72    27    69   1
    73    28    70   1
    74    28    71   1
    75    28    72   1
    76    33    73   1
    77    34    74   1
    78    35    75   1
    79    38    76   1
@<TRIPOS>SUBSTRUCTURE
     1  MOL      2

