@<TRIPOS>MOLECULE
4djr_ligand_031
    76    79
SMALL
GAST_HUCK
****
This file was generated by PARSER (from files_GN.cpp)

@<TRIPOS>ATOM
      1 O28        20.9985   21.9089   14.4780 O.2         1 MOL      -0.3971
      2 C27        20.2210   22.3955   13.6694 C.2         1 MOL       0.1764
      3 N29        20.6028   22.8178   12.4907 N.am        1 MOL      -0.2812
      4 C24        19.5489   23.1715   11.6190 C.3         1 MOL       0.0716
      5 C25        18.2801   22.9534   12.4916 C.3         1 MOL      -0.0105
      6 C26        18.8055   22.4273   13.8460 C.3         1 MOL       0.0394
      7 C22        19.7330   24.5939   11.0306 C.3         1 MOL       0.1003
      8 O23        19.3755   25.6157   11.9715 O.3         1 MOL      -0.2616
      9 C21        20.0457   26.7373   12.3296 C.2         1 MOL       0.3200
     10 O22        21.2323   27.0603   11.7559 O.2         1 MOL      -0.3775
     11 N20        19.4184   27.5548   13.2047 N.am        1 MOL      -0.2550
     12 C19        19.8250   28.8937   13.5444 C.3         1 MOL       0.0807
     13 C32        19.4962   29.8527   12.3399 C.3         1 MOL       0.0064
     14 C38        18.2045   29.6109   11.6158 C.ar        1 MOL      -0.0408
     15 C37        18.1911   28.8537   10.4183 C.ar        1 MOL      -0.0603
     16 C36        16.9793   28.5512    9.7692 C.ar        1 MOL      -0.0686
     17 C35        15.7621   28.9988   10.3107 C.ar        1 MOL      -0.0687
     18 C34        15.7571   29.7882   11.4702 C.ar        1 MOL      -0.0686
     19 C33        16.9708   30.1049   12.1059 C.ar        1 MOL      -0.0603
     20 C17        19.2536   29.2759   14.9599 C.3         1 MOL       0.0967
     21 O18        17.8522   29.5394   14.8973 O.3         1 MOL      -0.3877
     22 C16        19.9912   30.3694   15.8184 C.3         1 MOL       0.0579
     23 N11        20.4675   31.5815   15.1793 N.am        1 MOL      -0.2317
     24 C12        21.7946   31.6031   14.5711 C.3         1 MOL       0.0322
     25 C13        23.0057   32.3332   15.2707 C.3         1 MOL      -0.0270
     26 C14        23.3832   33.6886   14.6020 C.3         1 MOL      -0.0610
     27 C15        23.0026   32.4035   16.8359 C.3         1 MOL      -0.0518
     28 C18        22.1005   33.4650   17.5089 C.3         1 MOL      -0.0650
     29 S8         19.4083   32.8952   14.9787 S.o2        1 MOL       0.0679
     30 O10        18.3260   32.5977   13.8514 O.2         1 MOL      -0.1506
     31 O9         20.2270   34.0829   14.2900 O.2         1 MOL      -0.1506
     32 C5         18.4515   33.5601   16.2820 C.ar        1 MOL       0.1007
     33 C6         17.3698   32.8096   16.8118 C.ar        1 MOL      -0.0433
     34 C7         16.4700   33.3840   17.7357 C.ar        1 MOL      -0.0517
     35 C4         18.6239   34.9043   16.6877 C.ar        1 MOL      -0.0206
     36 C3         17.7052   35.4618   17.5898 C.ar        1 MOL       0.0595
     37 S1         17.5725   37.0473   18.2311 S.3         1 MOL       0.0026
     38 C1         16.1540   36.7013   19.1423 C.2         1 MOL       0.0809
     39 N1         15.8126   35.4083   18.9500 N.2         1 MOL      -0.2931
     40 C2         16.6339   34.7273   18.1110 C.ar        1 MOL       0.0375
     41 H1         21.5226   22.7654   12.1899 H           1 MOL       0.1855
     42 H2         19.5574   22.4505   10.7962 H           1 MOL       0.0584
     43 H3         17.6151   22.2180   12.0251 H           1 MOL       0.0313
     44 H4         17.7101   23.8749   12.6400 H           1 MOL       0.0313
     45 H5         18.5519   23.0995   14.6706 H           1 MOL       0.0503
     46 H6         18.4219   21.4266   14.0563 H           1 MOL       0.0503
     47 H7         19.0667   24.7002   10.1733 H           1 MOL       0.0634
     48 H8         20.7591   24.7149   10.6731 H           1 MOL       0.0634
     49 H9         18.5642   27.2527   13.5520 H           1 MOL       0.1873
     50 H10        20.9103   28.8587   13.6731 H           1 MOL       0.0604
     51 H11        20.3238   29.7626   11.6242 H           1 MOL       0.0449
     52 H12        19.5378   30.8913   12.6692 H           1 MOL       0.0449
     53 H13        19.0597   28.4935   10.0277 H           1 MOL       0.0557
     54 H14        16.9844   27.9958    8.9149 H           1 MOL       0.0599
     55 H15        14.8768   28.7467    9.8666 H           1 MOL       0.0559
     56 H16        14.8756   30.1280   11.8493 H           1 MOL       0.0599
     57 H17        16.9308   30.6899   12.9324 H           1 MOL       0.0557
     58 H18        19.3271   28.3634   15.5660 H           1 MOL       0.0634
     59 H19        17.5106   29.2821   15.7820 H           1 MOL       0.2100
     60 H20        20.8477   29.8800   16.2970 H           1 MOL       0.0504
     61 H21        19.3356   30.6435   16.6497 H           1 MOL       0.0504
     62 H22        21.6890   31.9753   13.5482 H           1 MOL       0.0481
     63 H23        22.1238   30.5688   14.4309 H           1 MOL       0.0481
     64 H24        23.8749   31.6991   15.0478 H           1 MOL       0.0314
     65 H25        24.3482   34.0412   14.9848 H           1 MOL       0.0233
     66 H26        22.6155   34.4479   14.7798 H           1 MOL       0.0233
     67 H27        23.4901   33.5571   13.5214 H           1 MOL       0.0233
     68 H28        24.0240   32.6162   17.1625 H           1 MOL       0.0266
     69 H29        22.7395   31.4223   17.2387 H           1 MOL       0.0266
     70 H30        22.2650   33.4540   18.5916 H           1 MOL       0.0230
     71 H31        21.0473   33.2510   17.3217 H           1 MOL       0.0230
     72 H32        22.3385   34.4682   17.1448 H           1 MOL       0.0230
     73 H33        17.2010   31.8512   16.5002 H           1 MOL       0.0580
     74 H34        15.6888   32.8389   18.1015 H           1 MOL       0.0584
     75 H35        19.3706   35.4864   16.3074 H           1 MOL       0.0592
     76 H36        15.6432   37.3674   19.7238 H           1 MOL       0.1260
@<TRIPOS>BOND
     1     1     2   2
     2     2     3  am
     3     2     6   1
     4     3     4   1
     5     4     5   1
     6     4     7   1
     7     5     6   1
     8     7     8   1
     9     8     9   1
    10     9    10   2
    11     9    11  am
    12    11    12   1
    13    12    13   1
    14    12    20   1
    15    13    14   1
    16    14    15  ar
    17    14    19  ar
    18    15    16  ar
    19    16    17  ar
    20    17    18  ar
    21    18    19  ar
    22    20    21   1
    23    20    22   1
    24    22    23   1
    25    23    24   1
    26    23    29  am
    27    24    25   1
    28    25    26   1
    29    25    27   1
    30    27    28   1
    31    29    30   2
    32    29    31   2
    33    29    32   1
    34    32    33  ar
    35    32    35  ar
    36    33    34  ar
    37    34    40  ar
    38    35    36  ar
    39    36    37   1
    40    36    40  ar
    41    37    38   1
    42    38    39   2
    43    39    40   1
    44     3    41   1
    45     4    42   1
    46     5    43   1
    47     5    44   1
    48     6    45   1
    49     6    46   1
    50     7    47   1
    51     7    48   1
    52    11    49   1
    53    12    50   1
    54    13    51   1
    55    13    52   1
    56    15    53   1
    57    16    54   1
    58    17    55   1
    59    18    56   1
    60    19    57   1
    61    20    58   1
    62    21    59   1
    63    22    60   1
    64    22    61   1
    65    24    62   1
    66    24    63   1
    67    25    64   1
    68    26    65   1
    69    26    66   1
    70    26    67   1
    71    27    68   1
    72    27    69   1
    73    28    70   1
    74    28    71   1
    75    28    72   1
    76    33    73   1
    77    34    74   1
    78    35    75   1
    79    38    76   1
@<TRIPOS>SUBSTRUCTURE
     1  MOL      2

