@<TRIPOS>MOLECULE
4djr_ligand_019
    76    79
SMALL
GAST_HUCK
****
This file was generated by PARSER (from files_GN.cpp)

@<TRIPOS>ATOM
      1 O28        14.1067   41.3785   20.2738 O.2         1 MOL      -0.3971
      2 C27        14.8743   40.7605   19.5442 C.2         1 MOL       0.1764
      3 N29        14.5437   39.6295   18.9742 N.am        1 MOL      -0.2812
      4 C24        15.5358   39.0856   18.1314 C.3         1 MOL       0.0716
      5 C25        16.7352   40.0519   18.3207 C.3         1 MOL      -0.0105
      6 C26        16.2064   41.1798   19.2431 C.3         1 MOL       0.0394
      7 C22        15.8120   37.6002   18.4754 C.3         1 MOL       0.1003
      8 O23        16.1318   36.9050   17.2682 O.3         1 MOL      -0.2616
      9 C21        16.5087   35.6076   17.1807 C.2         1 MOL       0.3200
     10 O22        16.6178   34.8237   18.2927 O.2         1 MOL      -0.3775
     11 N20        16.7743   35.1445   15.9344 N.am        1 MOL      -0.2550
     12 C19        17.2641   33.8453   15.5901 C.3         1 MOL       0.0807
     13 C32        17.5096   33.7931   14.0483 C.3         1 MOL       0.0064
     14 C38        17.9484   32.4711   13.5205 C.ar        1 MOL      -0.0408
     15 C37        19.2573   32.2812   13.0158 C.ar        1 MOL      -0.0603
     16 C36        19.6565   31.0397   12.4944 C.ar        1 MOL      -0.0686
     17 C35        18.7673   29.9488   12.5030 C.ar        1 MOL      -0.0687
     18 C34        17.4662   30.1153   13.0097 C.ar        1 MOL      -0.0686
     19 C33        17.0606   31.3648   13.5094 C.ar        1 MOL      -0.0603
     20 C17        18.5114   33.4617   16.4618 C.3         1 MOL       0.0967
     21 O18        18.0815   33.2950   17.8196 O.3         1 MOL      -0.3877
     22 C16        19.6946   34.4825   16.3874 C.3         1 MOL       0.0579
     23 N11        20.8456   34.1143   17.1870 N.am        1 MOL      -0.2317
     24 C12        20.9935   34.6281   18.5378 C.3         1 MOL       0.0322
     25 C13        21.4498   36.1253   18.6352 C.3         1 MOL      -0.0270
     26 C14        21.2985   36.6590   20.0958 C.3         1 MOL      -0.0610
     27 C15        22.8916   36.3558   18.0872 C.3         1 MOL      -0.0518
     28 C18        23.0357   37.5662   17.1279 C.3         1 MOL      -0.0650
     29 S8         22.0709   33.1857   16.4542 S.o2        1 MOL       0.0679
     30 O10        23.3086   33.0046   17.4409 O.2         1 MOL      -0.1506
     31 O9         22.6837   34.0427   15.2594 O.2         1 MOL      -0.1506
     32 C5         21.7006   31.5689   15.9253 C.ar        1 MOL       0.1007
     33 C6         20.7483   30.7793   16.6191 C.ar        1 MOL      -0.0433
     34 C7         20.4165   29.4823   16.1771 C.ar        1 MOL      -0.0517
     35 C4         22.3706   31.0187   14.8098 C.ar        1 MOL      -0.0206
     36 C3         22.0539   29.7166   14.4030 C.ar        1 MOL       0.0595
     37 S1         22.6675   28.7600   13.1191 S.3         1 MOL       0.0026
     38 C1         21.6510   27.4149   13.4647 C.2         1 MOL       0.0809
     39 N1         20.8805   27.7072   14.5358 N.2         1 MOL      -0.2931
     40 C2         21.0812   28.9450   15.0601 C.ar        1 MOL       0.0375
     41 H1         13.6950   39.1883   19.1172 H           1 MOL       0.1855
     42 H2         15.1704   39.1414   17.1039 H           1 MOL       0.0584
     43 H3         17.0609   40.4665   17.3625 H           1 MOL       0.0313
     44 H4         17.5869   39.5557   18.7881 H           1 MOL       0.0313
     45 H5         16.8024   41.2536   20.1546 H           1 MOL       0.0503
     46 H6         16.1984   42.1524   18.7340 H           1 MOL       0.0503
     47 H7         14.9197   37.1410   18.9081 H           1 MOL       0.0634
     48 H8         16.6299   37.5143   19.1987 H           1 MOL       0.0634
     49 H9         16.6173   35.7589   15.1958 H           1 MOL       0.1873
     50 H10        16.4695   33.1229   15.8185 H           1 MOL       0.0604
     51 H11        18.2249   34.5758   13.7816 H           1 MOL       0.0449
     52 H12        16.5756   34.0538   13.5505 H           1 MOL       0.0449
     53 H13        19.9236   33.0567   13.0076 H           1 MOL       0.0557
     54 H14        20.5984   30.9210   12.1218 H           1 MOL       0.0599
     55 H15        19.0629   29.0447   12.1375 H           1 MOL       0.0559
     56 H16        16.8226   29.3210   13.0191 H           1 MOL       0.0599
     57 H17        16.1037   31.4671   13.8534 H           1 MOL       0.0557
     58 H18        18.8700   32.4861   16.1224 H           1 MOL       0.0634
     59 H19        18.8149   32.8189   18.2674 H           1 MOL       0.2100
     60 H20        19.3194   35.4656   16.7007 H           1 MOL       0.0504
     61 H21        19.9972   34.5998   15.3411 H           1 MOL       0.0504
     62 H22        21.6765   34.0087   19.1247 H           1 MOL       0.0481
     63 H23        20.0231   34.5340   19.0343 H           1 MOL       0.0481
     64 H24        20.7696   36.7284   18.0259 H           1 MOL       0.0314
     65 H25        21.5095   37.7293   20.1494 H           1 MOL       0.0233
     66 H26        21.9881   36.1332   20.7657 H           1 MOL       0.0233
     67 H27        20.2802   36.5094   20.4588 H           1 MOL       0.0233
     68 H28        23.2157   35.4816   17.5266 H           1 MOL       0.0266
     69 H29        23.5859   36.4750   18.9201 H           1 MOL       0.0266
     70 H30        24.0643   37.6289   16.7637 H           1 MOL       0.0230
     71 H31        22.7930   38.5046   17.6324 H           1 MOL       0.0230
     72 H32        22.3738   37.4443   16.2667 H           1 MOL       0.0230
     73 H33        20.2790   31.1530   17.4449 H           1 MOL       0.0580
     74 H34        19.7150   28.9289   16.6740 H           1 MOL       0.0584
     75 H35        23.0725   31.5445   14.2948 H           1 MOL       0.0592
     76 H36        21.6394   26.5364   12.9438 H           1 MOL       0.1260
@<TRIPOS>BOND
     1     1     2   2
     2     2     3  am
     3     2     6   1
     4     3     4   1
     5     4     5   1
     6     4     7   1
     7     5     6   1
     8     7     8   1
     9     8     9   1
    10     9    10   2
    11     9    11  am
    12    11    12   1
    13    12    13   1
    14    12    20   1
    15    13    14   1
    16    14    15  ar
    17    14    19  ar
    18    15    16  ar
    19    16    17  ar
    20    17    18  ar
    21    18    19  ar
    22    20    21   1
    23    20    22   1
    24    22    23   1
    25    23    24   1
    26    23    29  am
    27    24    25   1
    28    25    26   1
    29    25    27   1
    30    27    28   1
    31    29    30   2
    32    29    31   2
    33    29    32   1
    34    32    33  ar
    35    32    35  ar
    36    33    34  ar
    37    34    40  ar
    38    35    36  ar
    39    36    37   1
    40    36    40  ar
    41    37    38   1
    42    38    39   2
    43    39    40   1
    44     3    41   1
    45     4    42   1
    46     5    43   1
    47     5    44   1
    48     6    45   1
    49     6    46   1
    50     7    47   1
    51     7    48   1
    52    11    49   1
    53    12    50   1
    54    13    51   1
    55    13    52   1
    56    15    53   1
    57    16    54   1
    58    17    55   1
    59    18    56   1
    60    19    57   1
    61    20    58   1
    62    21    59   1
    63    22    60   1
    64    22    61   1
    65    24    62   1
    66    24    63   1
    67    25    64   1
    68    26    65   1
    69    26    66   1
    70    26    67   1
    71    27    68   1
    72    27    69   1
    73    28    70   1
    74    28    71   1
    75    28    72   1
    76    33    73   1
    77    34    74   1
    78    35    75   1
    79    38    76   1
@<TRIPOS>SUBSTRUCTURE
     1  MOL      2

