@<TRIPOS>MOLECULE
4djr_ligand_008
    76    79
SMALL
GAST_HUCK
****
This file was generated by PARSER (from files_GN.cpp)

@<TRIPOS>ATOM
      1 O28        14.0286   40.0120   17.9001 O.2         1 MOL      -0.3971
      2 C27        14.7295   40.7715   17.2333 C.2         1 MOL       0.1764
      3 N29        15.6833   40.3281   16.4577 N.am        1 MOL      -0.2812
      4 C24        16.4219   41.3446   15.8008 C.3         1 MOL       0.0716
      5 C25        15.6824   42.6446   16.2297 C.3         1 MOL      -0.0105
      6 C26        14.6139   42.1895   17.2473 C.3         1 MOL       0.0394
      7 C22        17.9193   41.2902   16.2021 C.3         1 MOL       0.1003
      8 O23        18.3971   39.9398   16.1311 O.3         1 MOL      -0.2616
      9 C21        19.5054   39.4417   16.7304 C.2         1 MOL       0.3200
     10 O22        20.3343   40.2391   17.4494 O.2         1 MOL      -0.3775
     11 N20        19.6278   38.1014   16.6878 N.am        1 MOL      -0.2550
     12 C19        20.4750   37.2671   17.4999 C.3         1 MOL       0.0807
     13 C32        20.2581   37.5296   19.0367 C.3         1 MOL       0.0064
     14 C38        21.1135   36.6914   19.9305 C.ar        1 MOL      -0.0408
     15 C37        20.6179   35.5042   20.5169 C.ar        1 MOL      -0.0603
     16 C36        21.4467   34.7038   21.3282 C.ar        1 MOL      -0.0686
     17 C35        22.7752   35.0923   21.5732 C.ar        1 MOL      -0.0687
     18 C34        23.2732   36.2820   21.0116 C.ar        1 MOL      -0.0686
     19 C33        22.4529   37.0731   20.1932 C.ar        1 MOL      -0.0603
     20 C17        20.2123   35.7729   17.1012 C.3         1 MOL       0.0967
     21 O18        20.7834   35.5011   15.8180 O.3         1 MOL      -0.3877
     22 C16        18.7045   35.3377   17.1209 C.3         1 MOL       0.0579
     23 N11        18.2777   33.9575   17.0146 N.am        1 MOL      -0.2317
     24 C12        16.8588   33.6583   17.1722 C.3         1 MOL       0.0322
     25 C13        16.0700   33.1881   15.8957 C.3         1 MOL      -0.0270
     26 C14        15.0684   32.0585   16.2752 C.3         1 MOL      -0.0610
     27 C15        15.3004   34.3338   15.1407 C.3         1 MOL      -0.0518
     28 C18        16.1257   35.1387   14.1127 C.3         1 MOL      -0.0650
     29 S8         19.3468   32.6703   16.7548 S.o2        1 MOL       0.0679
     30 O10        18.7108   31.3253   17.3433 O.2         1 MOL      -0.1506
     31 O9         20.6653   32.7433   17.6935 O.2         1 MOL      -0.1506
     32 C5         19.8106   32.3121   15.1357 C.ar        1 MOL       0.1007
     33 C6         19.1913   32.9932   14.0561 C.ar        1 MOL      -0.0433
     34 C7         19.4575   32.6391   12.7196 C.ar        1 MOL      -0.0517
     35 C4         20.7633   31.2905   14.8520 C.ar        1 MOL      -0.0206
     36 C3         21.0282   30.9692   13.5165 C.ar        1 MOL       0.0595
     37 S1         22.0744   29.8030   12.8142 S.3         1 MOL       0.0026
     38 C1         21.6498   30.2049   11.1982 C.2         1 MOL       0.0809
     39 N1         20.7237   31.1930   11.2114 N.2         1 MOL      -0.2931
     40 C2         20.3874   31.6182   12.4526 C.ar        1 MOL       0.0375
     41 H1         15.8811   39.3869   16.3592 H           1 MOL       0.1855
     42 H2         16.3300   41.1887   14.7222 H           1 MOL       0.0584
     43 H3         15.2065   43.1125   15.3633 H           1 MOL       0.0313
     44 H4         16.3557   43.3790   16.6795 H           1 MOL       0.0313
     45 H5         14.8234   42.5761   18.2508 H           1 MOL       0.0503
     46 H6         13.6065   42.4946   16.9418 H           1 MOL       0.0503
     47 H7         18.0310   41.6495   17.2281 H           1 MOL       0.0634
     48 H8         18.5130   41.9228   15.5396 H           1 MOL       0.0634
     49 H9         19.0433   37.6469   16.0613 H           1 MOL       0.1873
     50 H10        21.5125   37.5090   17.2618 H           1 MOL       0.0604
     51 H11        19.2089   37.3900   19.2908 H           1 MOL       0.0449
     52 H12        20.4754   38.5716   19.2755 H           1 MOL       0.0449
     53 H13        19.6575   35.1968   20.3357 H           1 MOL       0.0557
     54 H14        21.0837   33.8378   21.7333 H           1 MOL       0.0599
     55 H15        23.3764   34.5142   22.1644 H           1 MOL       0.0559
     56 H16        24.2390   36.5667   21.1943 H           1 MOL       0.0599
     57 H17        22.8334   37.9322   19.7868 H           1 MOL       0.0557
     58 H18        20.7646   35.1572   17.8017 H           1 MOL       0.0634
     59 H19        20.2350   35.9982   15.1803 H           1 MOL       0.2100
     60 H20        18.2177   35.8690   16.3066 H           1 MOL       0.0504
     61 H21        18.2826   35.7315   18.0471 H           1 MOL       0.0504
     62 H22        16.3274   34.5135   17.5973 H           1 MOL       0.0481
     63 H23        16.8008   32.9034   17.9583 H           1 MOL       0.0481
     64 H24        16.7658   32.7210   15.1948 H           1 MOL       0.0314
     65 H25        14.5616   31.6771   15.3881 H           1 MOL       0.0233
     66 H26        14.3197   32.4407   16.9722 H           1 MOL       0.0233
     67 H27        15.5933   31.2234   16.7393 H           1 MOL       0.0233
     68 H28        14.8630   35.0333   15.8574 H           1 MOL       0.0266
     69 H29        14.4615   33.9168   14.5749 H           1 MOL       0.0266
     70 H30        15.4845   35.8408   13.5803 H           1 MOL       0.0230
     71 H31        16.5712   34.4675   13.3793 H           1 MOL       0.0230
     72 H32        16.9080   35.7140   14.6039 H           1 MOL       0.0230
     73 H33        18.5312   33.7447   14.2420 H           1 MOL       0.0580
     74 H34        18.9890   33.1188   11.9565 H           1 MOL       0.0584
     75 H35        21.2242   30.7847   15.6118 H           1 MOL       0.0592
     76 H36        22.0179   29.7631   10.3556 H           1 MOL       0.1260
@<TRIPOS>BOND
     1     1     2   2
     2     2     3  am
     3     2     6   1
     4     3     4   1
     5     4     5   1
     6     4     7   1
     7     5     6   1
     8     7     8   1
     9     8     9   1
    10     9    10   2
    11     9    11  am
    12    11    12   1
    13    12    13   1
    14    12    20   1
    15    13    14   1
    16    14    15  ar
    17    14    19  ar
    18    15    16  ar
    19    16    17  ar
    20    17    18  ar
    21    18    19  ar
    22    20    21   1
    23    20    22   1
    24    22    23   1
    25    23    24   1
    26    23    29  am
    27    24    25   1
    28    25    26   1
    29    25    27   1
    30    27    28   1
    31    29    30   2
    32    29    31   2
    33    29    32   1
    34    32    33  ar
    35    32    35  ar
    36    33    34  ar
    37    34    40  ar
    38    35    36  ar
    39    36    37   1
    40    36    40  ar
    41    37    38   1
    42    38    39   2
    43    39    40   1
    44     3    41   1
    45     4    42   1
    46     5    43   1
    47     5    44   1
    48     6    45   1
    49     6    46   1
    50     7    47   1
    51     7    48   1
    52    11    49   1
    53    12    50   1
    54    13    51   1
    55    13    52   1
    56    15    53   1
    57    16    54   1
    58    17    55   1
    59    18    56   1
    60    19    57   1
    61    20    58   1
    62    21    59   1
    63    22    60   1
    64    22    61   1
    65    24    62   1
    66    24    63   1
    67    25    64   1
    68    26    65   1
    69    26    66   1
    70    26    67   1
    71    27    68   1
    72    27    69   1
    73    28    70   1
    74    28    71   1
    75    28    72   1
    76    33    73   1
    77    34    74   1
    78    35    75   1
    79    38    76   1
@<TRIPOS>SUBSTRUCTURE
     1  MOL      2

