@<TRIPOS>MOLECULE
4djr_ligand_073
    76    79
SMALL
GAST_HUCK
****
This file was generated by PARSER (from files_GN.cpp)

@<TRIPOS>ATOM
      1 O28        16.2278   32.7074   14.3494 O.2         1 MOL      -0.3971
      2 C27        15.6780   33.1198   15.3611 C.2         1 MOL       0.1764
      3 N29        15.3911   34.3861   15.5535 N.am        1 MOL      -0.2812
      4 C24        14.7048   34.6480   16.7641 C.3         1 MOL       0.0716
      5 C25        14.7763   33.2802   17.4952 C.3         1 MOL      -0.0105
      6 C26        15.2502   32.2699   16.4308 C.3         1 MOL       0.0394
      7 C22        15.2583   35.8672   17.5653 C.3         1 MOL       0.1003
      8 O23        16.5713   36.2822   17.1702 O.3         1 MOL      -0.2616
      9 C21        17.7355   36.2778   17.8692 C.2         1 MOL       0.3200
     10 O22        17.7959   35.7488   19.1114 O.2         1 MOL      -0.3775
     11 N20        18.8027   36.8136   17.2338 N.am        1 MOL      -0.2550
     12 C19        20.1766   36.9350   17.6528 C.3         1 MOL       0.0807
     13 C32        20.3860   37.5573   19.0868 C.3         1 MOL       0.0064
     14 C38        21.3728   36.8757   19.9771 C.ar        1 MOL      -0.0408
     15 C37        21.0221   35.6898   20.6603 C.ar        1 MOL      -0.0603
     16 C36        21.9750   35.0018   21.4350 C.ar        1 MOL      -0.0686
     17 C35        23.2862   35.5020   21.5534 C.ar        1 MOL      -0.0687
     18 C34        23.6440   36.6916   20.8980 C.ar        1 MOL      -0.0686
     19 C33        22.6929   37.3785   20.1216 C.ar        1 MOL      -0.0603
     20 C17        21.0230   35.6874   17.2153 C.3         1 MOL       0.0967
     21 O18        20.9305   35.4995   15.7974 O.3         1 MOL      -0.3877
     22 C16        20.7607   34.3367   17.9598 C.3         1 MOL       0.0579
     23 N11        20.7272   33.1381   17.1477 N.am        1 MOL      -0.2317
     24 C12        21.8872   32.2900   16.9694 C.3         1 MOL       0.0322
     25 C13        22.5762   32.4253   15.5643 C.3         1 MOL      -0.0270
     26 C14        23.7479   33.4479   15.5815 C.3         1 MOL      -0.0610
     27 C15        23.0316   31.0350   15.0131 C.3         1 MOL      -0.0518
     28 C18        23.4629   31.0271   13.5281 C.3         1 MOL      -0.0650
     29 S8         19.2268   32.5907   16.5636 S.o2        1 MOL       0.0679
     30 O10        18.1838   33.7915   16.5526 O.2         1 MOL      -0.1506
     31 O9         18.6241   31.5122   17.5639 O.2         1 MOL      -0.1506
     32 C5         19.2445   31.9781   14.9379 C.ar        1 MOL       0.1007
     33 C6         19.1670   32.8747   13.8386 C.ar        1 MOL      -0.0433
     34 C7         19.3091   32.4031   12.5212 C.ar        1 MOL      -0.0517
     35 C4         19.4363   30.5976   14.7134 C.ar        1 MOL      -0.0206
     36 C3         19.5978   30.1528   13.3934 C.ar        1 MOL       0.0595
     37 S1         19.9255   28.5916   12.7567 S.3         1 MOL       0.0026
     38 C1         19.9885   29.1321   11.1250 C.2         1 MOL       0.0809
     39 N1         19.7604   30.4638   11.0892 N.2         1 MOL      -0.2931
     40 C2         19.5468   31.0371   12.2987 C.ar        1 MOL       0.0375
     41 H1         15.5658   35.0671   14.8852 H           1 MOL       0.1855
     42 H2         13.6613   34.8514   16.5039 H           1 MOL       0.0584
     43 H3         13.7949   33.0011   17.8897 H           1 MOL       0.0313
     44 H4         15.4935   33.3044   18.3241 H           1 MOL       0.0313
     45 H5         16.0771   31.6597   16.8026 H           1 MOL       0.0503
     46 H6         14.4351   31.6227   16.0991 H           1 MOL       0.0503
     47 H7         15.2123   35.6600   18.6392 H           1 MOL       0.0634
     48 H8         14.6040   36.7243   17.3824 H           1 MOL       0.0634
     49 H9         18.6251   37.1318   16.3262 H           1 MOL       0.1873
     50 H10        20.5425   37.7122   16.9843 H           1 MOL       0.0604
     51 H11        19.4336   37.6242   19.6220 H           1 MOL       0.0449
     52 H12        20.6933   38.6040   18.9797 H           1 MOL       0.0449
     53 H13        20.0796   35.3200   20.5952 H           1 MOL       0.0557
     54 H14        21.7142   34.1349   21.9184 H           1 MOL       0.0599
     55 H15        23.9777   34.9945   22.1114 H           1 MOL       0.0559
     56 H16        24.5937   37.0449   20.9687 H           1 MOL       0.0599
     57 H17        22.9757   38.2346   19.6334 H           1 MOL       0.0557
     58 H18        22.0692   35.9431   17.3787 H           1 MOL       0.0634
     59 H19        19.9884   35.6702   15.5448 H           1 MOL       0.2100
     60 H20        19.8277   34.4023   18.5236 H           1 MOL       0.0504
     61 H21        21.5341   34.2188   18.7253 H           1 MOL       0.0504
     62 H22        21.5691   31.2599   17.1498 H           1 MOL       0.0481
     63 H23        22.6316   32.4804   17.7470 H           1 MOL       0.0481
     64 H24        21.8393   32.8192   14.8577 H           1 MOL       0.0314
     65 H25        24.0908   33.6553   14.5680 H           1 MOL       0.0233
     66 H26        24.5899   33.0670   16.1607 H           1 MOL       0.0233
     67 H27        23.4313   34.3899   16.0217 H           1 MOL       0.0233
     68 H28        22.2067   30.3220   15.1021 H           1 MOL       0.0266
     69 H29        23.8551   30.6545   15.6214 H           1 MOL       0.0266
     70 H30        23.5939   29.9995   13.1876 H           1 MOL       0.0230
     71 H31        24.4094   31.5536   13.4062 H           1 MOL       0.0230
     72 H32        22.7054   31.5032   12.9022 H           1 MOL       0.0230
     73 H33        19.0422   33.8785   13.9937 H           1 MOL       0.0580
     74 H34        19.2699   33.0519   11.7373 H           1 MOL       0.0584
     75 H35        19.4990   29.9334   15.4839 H           1 MOL       0.0592
     76 H36        20.1742   28.5464   10.3134 H           1 MOL       0.1260
@<TRIPOS>BOND
     1     1     2   2
     2     2     3  am
     3     2     6   1
     4     3     4   1
     5     4     5   1
     6     4     7   1
     7     5     6   1
     8     7     8   1
     9     8     9   1
    10     9    10   2
    11     9    11  am
    12    11    12   1
    13    12    13   1
    14    12    20   1
    15    13    14   1
    16    14    15  ar
    17    14    19  ar
    18    15    16  ar
    19    16    17  ar
    20    17    18  ar
    21    18    19  ar
    22    20    21   1
    23    20    22   1
    24    22    23   1
    25    23    24   1
    26    23    29  am
    27    24    25   1
    28    25    26   1
    29    25    27   1
    30    27    28   1
    31    29    30   2
    32    29    31   2
    33    29    32   1
    34    32    33  ar
    35    32    35  ar
    36    33    34  ar
    37    34    40  ar
    38    35    36  ar
    39    36    37   1
    40    36    40  ar
    41    37    38   1
    42    38    39   2
    43    39    40   1
    44     3    41   1
    45     4    42   1
    46     5    43   1
    47     5    44   1
    48     6    45   1
    49     6    46   1
    50     7    47   1
    51     7    48   1
    52    11    49   1
    53    12    50   1
    54    13    51   1
    55    13    52   1
    56    15    53   1
    57    16    54   1
    58    17    55   1
    59    18    56   1
    60    19    57   1
    61    20    58   1
    62    21    59   1
    63    22    60   1
    64    22    61   1
    65    24    62   1
    66    24    63   1
    67    25    64   1
    68    26    65   1
    69    26    66   1
    70    26    67   1
    71    27    68   1
    72    27    69   1
    73    28    70   1
    74    28    71   1
    75    28    72   1
    76    33    73   1
    77    34    74   1
    78    35    75   1
    79    38    76   1
@<TRIPOS>SUBSTRUCTURE
     1  MOL      2

