@<TRIPOS>MOLECULE
4djr_ligand_064
    76    79
SMALL
GAST_HUCK
****
This file was generated by PARSER (from files_GN.cpp)

@<TRIPOS>ATOM
      1 O28        14.0058   41.2232   19.5610 O.2         1 MOL      -0.3971
      2 C27        14.7519   40.5949   18.8238 C.2         1 MOL       0.1764
      3 N29        14.7147   39.2878   18.7375 N.am        1 MOL      -0.2812
      4 C24        15.6699   38.7357   17.8493 C.3         1 MOL       0.0716
      5 C25        16.2681   39.9922   17.1592 C.3         1 MOL      -0.0105
      6 C26        15.7522   41.1860   17.9935 C.3         1 MOL       0.0394
      7 C22        16.7165   37.8805   18.6041 C.3         1 MOL       0.1003
      8 O23        17.6026   37.3054   17.6437 O.3         1 MOL      -0.2616
      9 C21        18.6847   36.5231   17.8835 C.2         1 MOL       0.3200
     10 O22        19.0863   36.2429   19.1484 O.2         1 MOL      -0.3775
     11 N20        19.3114   36.0342   16.7959 N.am        1 MOL      -0.2550
     12 C19        20.4656   35.1766   16.7422 C.3         1 MOL       0.0807
     13 C32        21.7891   35.9477   17.0490 C.3         1 MOL       0.0064
     14 C38        21.9455   37.2324   16.3068 C.ar        1 MOL      -0.0408
     15 C37        21.5679   37.3424   14.9456 C.ar        1 MOL      -0.0603
     16 C36        21.6909   38.5626   14.2586 C.ar        1 MOL      -0.0686
     17 C35        22.2377   39.6828   14.9057 C.ar        1 MOL      -0.0687
     18 C34        22.6468   39.5815   16.2484 C.ar        1 MOL      -0.0686
     19 C33        22.5005   38.3721   16.9419 C.ar        1 MOL      -0.0603
     20 C17        20.2788   33.8809   17.5980 C.3         1 MOL       0.0967
     21 O18        21.5160   33.1721   17.6955 O.3         1 MOL      -0.3877
     22 C16        19.1291   32.9250   17.1155 C.3         1 MOL       0.0579
     23 N11        18.8160   32.8647   15.6915 N.am        1 MOL      -0.2317
     24 C12        17.8686   33.7482   15.0276 C.3         1 MOL       0.0322
     25 C13        16.6561   34.3375   15.8242 C.3         1 MOL      -0.0270
     26 C14        15.8589   35.3423   14.9393 C.3         1 MOL      -0.0610
     27 C15        15.7145   33.2692   16.4742 C.3         1 MOL      -0.0518
     28 C18        14.9856   32.2995   15.5120 C.3         1 MOL      -0.0650
     29 S8         19.8308   31.9778   14.6541 S.o2        1 MOL       0.0679
     30 O10        21.1980   31.5385   15.3361 O.2         1 MOL      -0.1506
     31 O9         20.3344   32.9087   13.4666 O.2         1 MOL      -0.1506
     32 C5         19.1183   30.5284   14.0045 C.ar        1 MOL       0.1007
     33 C6         19.2355   29.3021   14.7029 C.ar        1 MOL      -0.0433
     34 C7         18.7241   28.1089   14.1521 C.ar        1 MOL      -0.0517
     35 C4         18.4552   30.5658   12.7595 C.ar        1 MOL      -0.0206
     36 C3         17.9493   29.3682   12.2325 C.ar        1 MOL       0.0595
     37 S1         17.1245   29.0463   10.7625 S.3         1 MOL       0.0026
     38 C1         16.9874   27.3596   11.0597 C.2         1 MOL       0.0809
     39 N1         17.5533   27.0700   12.2519 N.2         1 MOL      -0.2931
     40 C2         18.0790   28.1438   12.9017 C.ar        1 MOL       0.0375
     41 H1         14.0816   38.7454   19.2324 H           1 MOL       0.1855
     42 H2         15.1454   38.1117   17.1173 H           1 MOL       0.0584
     43 H3         15.8944   40.0666   16.1329 H           1 MOL       0.0313
     44 H4         17.3621   39.9801   17.1255 H           1 MOL       0.0313
     45 H5         16.5462   41.6101   18.6134 H           1 MOL       0.0503
     46 H6         15.3261   41.9637   17.3498 H           1 MOL       0.0503
     47 H7         16.2219   37.0786   19.1581 H           1 MOL       0.0634
     48 H8         17.2756   38.5048   19.3056 H           1 MOL       0.0634
     49 H9         18.9439   36.3049   15.9434 H           1 MOL       0.1873
     50 H10        20.5340   34.8400   15.7043 H           1 MOL       0.0604
     51 H11        22.6316   35.3066   16.7892 H           1 MOL       0.0449
     52 H12        21.8433   36.1127   18.1272 H           1 MOL       0.0449
     53 H13        21.1841   36.5360   14.4451 H           1 MOL       0.0557
     54 H14        21.3988   38.6286   13.2821 H           1 MOL       0.0599
     55 H15        22.3414   40.5626   14.4067 H           1 MOL       0.0559
     56 H16        23.0557   40.3904   16.7173 H           1 MOL       0.0599
     57 H17        22.7985   38.3203   17.9211 H           1 MOL       0.0557
     58 H18        20.0303   34.1814   18.6207 H           1 MOL       0.0634
     59 H19        21.3684   32.5566   18.4429 H           1 MOL       0.2100
     60 H20        18.2276   33.1891   17.6856 H           1 MOL       0.0504
     61 H21        19.3683   31.9008   17.4267 H           1 MOL       0.0504
     62 H22        17.4355   33.2252   14.1678 H           1 MOL       0.0481
     63 H23        18.4400   34.5826   14.6115 H           1 MOL       0.0481
     64 H24        17.0523   34.9561   16.6402 H           1 MOL       0.0314
     65 H25        15.0625   35.8142   15.5216 H           1 MOL       0.0233
     66 H26        15.4155   34.8470   14.0708 H           1 MOL       0.0233
     67 H27        16.5191   36.1405   14.5754 H           1 MOL       0.0233
     68 H28        14.9531   33.7879   17.0722 H           1 MOL       0.0266
     69 H29        16.2973   32.6594   17.1698 H           1 MOL       0.0266
     70 H30        14.2709   31.6905   16.0730 H           1 MOL       0.0230
     71 H31        15.7002   31.6320   15.0247 H           1 MOL       0.0230
     72 H32        14.4374   32.8531   14.7448 H           1 MOL       0.0230
     73 H33        19.7075   29.2590   15.6106 H           1 MOL       0.0580
     74 H34        18.8269   27.2216   14.6524 H           1 MOL       0.0584
     75 H35        18.3550   31.4352   12.2358 H           1 MOL       0.0592
     76 H36        16.5470   26.6805   10.4347 H           1 MOL       0.1260
@<TRIPOS>BOND
     1     1     2   2
     2     2     3  am
     3     2     6   1
     4     3     4   1
     5     4     5   1
     6     4     7   1
     7     5     6   1
     8     7     8   1
     9     8     9   1
    10     9    10   2
    11     9    11  am
    12    11    12   1
    13    12    13   1
    14    12    20   1
    15    13    14   1
    16    14    15  ar
    17    14    19  ar
    18    15    16  ar
    19    16    17  ar
    20    17    18  ar
    21    18    19  ar
    22    20    21   1
    23    20    22   1
    24    22    23   1
    25    23    24   1
    26    23    29  am
    27    24    25   1
    28    25    26   1
    29    25    27   1
    30    27    28   1
    31    29    30   2
    32    29    31   2
    33    29    32   1
    34    32    33  ar
    35    32    35  ar
    36    33    34  ar
    37    34    40  ar
    38    35    36  ar
    39    36    37   1
    40    36    40  ar
    41    37    38   1
    42    38    39   2
    43    39    40   1
    44     3    41   1
    45     4    42   1
    46     5    43   1
    47     5    44   1
    48     6    45   1
    49     6    46   1
    50     7    47   1
    51     7    48   1
    52    11    49   1
    53    12    50   1
    54    13    51   1
    55    13    52   1
    56    15    53   1
    57    16    54   1
    58    17    55   1
    59    18    56   1
    60    19    57   1
    61    20    58   1
    62    21    59   1
    63    22    60   1
    64    22    61   1
    65    24    62   1
    66    24    63   1
    67    25    64   1
    68    26    65   1
    69    26    66   1
    70    26    67   1
    71    27    68   1
    72    27    69   1
    73    28    70   1
    74    28    71   1
    75    28    72   1
    76    33    73   1
    77    34    74   1
    78    35    75   1
    79    38    76   1
@<TRIPOS>SUBSTRUCTURE
     1  MOL      2

