@<TRIPOS>MOLECULE
4djr_ligand_009
    76    79
SMALL
GAST_HUCK
****
This file was generated by PARSER (from files_GN.cpp)

@<TRIPOS>ATOM
      1 O28        21.1977   38.8515   13.3236 O.2         1 MOL      -0.3971
      2 C27        21.1119   39.5468   14.3251 C.2         1 MOL       0.1764
      3 N29        22.1588   40.0362   14.9347 N.am        1 MOL      -0.2812
      4 C24        21.8598   40.7255   16.1329 C.3         1 MOL       0.0716
      5 C25        20.3073   40.7791   16.1368 C.3         1 MOL      -0.0105
      6 C26        19.8792   39.8383   14.9926 C.3         1 MOL       0.0394
      7 C22        22.4837   40.0083   17.3555 C.3         1 MOL       0.1003
      8 O23        22.2106   38.6003   17.3673 O.3         1 MOL      -0.2616
      9 C21        21.2811   37.9270   18.0906 C.2         1 MOL       0.3200
     10 O22        20.3678   38.5791   18.8464 O.2         1 MOL      -0.3775
     11 N20        21.3836   36.5807   18.0705 N.am        1 MOL      -0.2550
     12 C19        20.6908   35.6431   18.9052 C.3         1 MOL       0.0807
     13 C32        20.9687   35.8519   20.4370 C.3         1 MOL       0.0064
     14 C38        22.4025   36.0216   20.8317 C.ar        1 MOL      -0.0408
     15 C37        23.0574   37.2672   20.6643 C.ar        1 MOL      -0.0603
     16 C36        24.4166   37.4243   21.0074 C.ar        1 MOL      -0.0686
     17 C35        25.1319   36.3456   21.5618 C.ar        1 MOL      -0.0687
     18 C34        24.4785   35.1244   21.7996 C.ar        1 MOL      -0.0686
     19 C33        23.1259   34.9634   21.4370 C.ar        1 MOL      -0.0603
     20 C17        19.1588   35.5731   18.5795 C.3         1 MOL       0.0967
     21 O18        18.5574   34.5298   19.3459 O.3         1 MOL      -0.3877
     22 C16        18.8103   35.3945   17.0617 C.3         1 MOL       0.0579
     23 N11        17.6484   34.5680   16.7922 N.am        1 MOL      -0.2317
     24 C12        17.7843   33.1882   16.3658 C.3         1 MOL       0.0322
     25 C13        17.2275   32.8971   14.9230 C.3         1 MOL      -0.0270
     26 C14        18.3776   32.6711   13.8993 C.3         1 MOL      -0.0610
     27 C15        16.2200   31.7025   14.8923 C.3         1 MOL      -0.0518
     28 C18        14.8181   32.0606   15.4506 C.3         1 MOL      -0.0650
     29 S8         16.1061   35.0835   17.2907 S.o2        1 MOL       0.0679
     30 O10        15.6252   34.2187   18.5355 O.2         1 MOL      -0.1506
     31 O9         15.0431   34.8645   16.1269 O.2         1 MOL      -0.1506
     32 C5         15.9535   36.7696   17.6945 C.ar        1 MOL       0.1007
     33 C6         16.0628   37.7314   16.6639 C.ar        1 MOL      -0.0433
     34 C7         15.8781   39.1023   16.9340 C.ar        1 MOL      -0.0517
     35 C4         15.6602   37.1826   19.0160 C.ar        1 MOL      -0.0206
     36 C3         15.4890   38.5505   19.2650 C.ar        1 MOL       0.0595
     37 S1         15.1188   39.3901   20.7139 S.3         1 MOL       0.0026
     38 C1         15.1113   40.9371   19.9607 C.2         1 MOL       0.0809
     39 N1         15.3801   40.7928   18.6447 N.2         1 MOL      -0.2931
     40 C2         15.5910   39.5132   18.2488 C.ar        1 MOL       0.0375
     41 H1         23.0675   39.8853   14.6267 H           1 MOL       0.1855
     42 H2         22.2651   41.7395   16.0747 H           1 MOL       0.0584
     43 H3         19.9675   41.7983   15.9299 H           1 MOL       0.0313
     44 H4         19.8750   40.4650   17.0889 H           1 MOL       0.0313
     45 H5         19.4320   38.9199   15.3817 H           1 MOL       0.0503
     46 H6         19.1793   40.3360   14.3174 H           1 MOL       0.0503
     47 H7         22.1374   40.4836   18.2771 H           1 MOL       0.0634
     48 H8         23.5690   40.1184   17.3202 H           1 MOL       0.0634
     49 H9         22.0714   36.2182   17.4874 H           1 MOL       0.1873
     50 H10        21.1164   34.6681   18.6493 H           1 MOL       0.0604
     51 H11        20.5609   34.9939   20.9805 H           1 MOL       0.0449
     52 H12        20.4061   36.7165   20.7854 H           1 MOL       0.0449
     53 H13        22.5496   38.0793   20.3006 H           1 MOL       0.0557
     54 H14        24.8814   38.3255   20.8544 H           1 MOL       0.0599
     55 H15        26.1217   36.4559   21.8005 H           1 MOL       0.0559
     56 H16        24.9861   34.3530   22.2343 H           1 MOL       0.0599
     57 H17        22.6679   34.0670   21.6215 H           1 MOL       0.0557
     58 H18        18.6932   36.5001   18.9240 H           1 MOL       0.0634
     59 H19        19.0763   33.7206   19.1591 H           1 MOL       0.2100
     60 H20        19.6812   34.9814   16.5438 H           1 MOL       0.0504
     61 H21        18.6554   36.3835   16.6195 H           1 MOL       0.0504
     62 H22        17.2814   32.5546   17.1021 H           1 MOL       0.0481
     63 H23        18.8275   32.8702   16.4219 H           1 MOL       0.0481
     64 H24        16.6893   33.7805   14.5646 H           1 MOL       0.0314
     65 H25        17.9736   32.5684   12.8871 H           1 MOL       0.0233
     66 H26        18.9352   31.7640   14.1410 H           1 MOL       0.0233
     67 H27        19.0658   33.5197   13.9018 H           1 MOL       0.0233
     68 H28        16.6278   30.8613   15.4614 H           1 MOL       0.0266
     69 H29        16.0759   31.3614   13.8617 H           1 MOL       0.0266
     70 H30        14.1581   31.1927   15.3967 H           1 MOL       0.0230
     71 H31        14.3735   32.8641   14.8613 H           1 MOL       0.0230
     72 H32        14.8796   32.3734   16.4935 H           1 MOL       0.0230
     73 H33        16.2649   37.4349   15.7053 H           1 MOL       0.0580
     74 H34        15.9351   39.7841   16.1768 H           1 MOL       0.0584
     75 H35        15.5559   36.5119   19.7795 H           1 MOL       0.0592
     76 H36        14.9367   41.8226   20.4374 H           1 MOL       0.1260
@<TRIPOS>BOND
     1     1     2   2
     2     2     3  am
     3     2     6   1
     4     3     4   1
     5     4     5   1
     6     4     7   1
     7     5     6   1
     8     7     8   1
     9     8     9   1
    10     9    10   2
    11     9    11  am
    12    11    12   1
    13    12    13   1
    14    12    20   1
    15    13    14   1
    16    14    15  ar
    17    14    19  ar
    18    15    16  ar
    19    16    17  ar
    20    17    18  ar
    21    18    19  ar
    22    20    21   1
    23    20    22   1
    24    22    23   1
    25    23    24   1
    26    23    29  am
    27    24    25   1
    28    25    26   1
    29    25    27   1
    30    27    28   1
    31    29    30   2
    32    29    31   2
    33    29    32   1
    34    32    33  ar
    35    32    35  ar
    36    33    34  ar
    37    34    40  ar
    38    35    36  ar
    39    36    37   1
    40    36    40  ar
    41    37    38   1
    42    38    39   2
    43    39    40   1
    44     3    41   1
    45     4    42   1
    46     5    43   1
    47     5    44   1
    48     6    45   1
    49     6    46   1
    50     7    47   1
    51     7    48   1
    52    11    49   1
    53    12    50   1
    54    13    51   1
    55    13    52   1
    56    15    53   1
    57    16    54   1
    58    17    55   1
    59    18    56   1
    60    19    57   1
    61    20    58   1
    62    21    59   1
    63    22    60   1
    64    22    61   1
    65    24    62   1
    66    24    63   1
    67    25    64   1
    68    26    65   1
    69    26    66   1
    70    26    67   1
    71    27    68   1
    72    27    69   1
    73    28    70   1
    74    28    71   1
    75    28    72   1
    76    33    73   1
    77    34    74   1
    78    35    75   1
    79    38    76   1
@<TRIPOS>SUBSTRUCTURE
     1  MOL      2

