@<TRIPOS>MOLECULE
4djr_ligand_036
    76    79
SMALL
GAST_HUCK
****
This file was generated by PARSER (from files_GN.cpp)

@<TRIPOS>ATOM
      1 O28        18.8495   42.5966   18.0958 O.2         1 MOL      -0.3971
      2 C27        17.8456   42.4947   17.4042 C.2         1 MOL       0.1764
      3 N29        16.6479   42.7779   17.8547 N.am        1 MOL      -0.2812
      4 C24        15.6044   42.4948   16.9429 C.3         1 MOL       0.0716
      5 C25        16.3686   42.1446   15.6375 C.3         1 MOL      -0.0105
      6 C26        17.8498   42.0140   16.0567 C.3         1 MOL       0.0394
      7 C22        14.6499   41.4057   17.5108 C.3         1 MOL       0.1003
      8 O23        15.3009   40.3164   18.1859 O.3         1 MOL      -0.2616
      9 C21        15.9937   39.2680   17.6620 C.2         1 MOL       0.3200
     10 O22        16.1436   39.1046   16.3222 O.2         1 MOL      -0.3775
     11 N20        16.4322   38.3326   18.5333 N.am        1 MOL      -0.2550
     12 C19        16.9636   37.0424   18.1843 C.3         1 MOL       0.0807
     13 C32        15.7848   36.1145   17.6739 C.3         1 MOL       0.0064
     14 C38        16.0580   35.2809   16.4743 C.ar        1 MOL      -0.0408
     15 C37        16.1193   33.8685   16.5565 C.ar        1 MOL      -0.0603
     16 C36        16.4336   33.1001   15.4210 C.ar        1 MOL      -0.0686
     17 C35        16.6702   33.7283   14.1844 C.ar        1 MOL      -0.0687
     18 C34        16.5908   35.1284   14.0854 C.ar        1 MOL      -0.0686
     19 C33        16.2887   35.8990   15.2246 C.ar        1 MOL      -0.0603
     20 C17        18.2774   37.1473   17.3296 C.3         1 MOL       0.0967
     21 O18        18.6106   35.8304   16.8648 O.3         1 MOL      -0.3877
     22 C16        19.4944   37.7502   18.1163 C.3         1 MOL       0.0579
     23 N11        20.7533   37.0425   17.9768 N.am        1 MOL      -0.2317
     24 C12        21.4936   36.6030   19.1531 C.3         1 MOL       0.0322
     25 C13        20.7722   35.7258   20.2431 C.3         1 MOL      -0.0270
     26 C14        19.6313   34.8142   19.7088 C.3         1 MOL      -0.0610
     27 C15        21.7774   34.8536   21.0724 C.3         1 MOL      -0.0518
     28 C18        23.1995   35.4365   21.2835 C.3         1 MOL      -0.0650
     29 S8         21.5563   37.0927   16.4711 S.o2        1 MOL       0.0679
     30 O10        21.1239   35.8959   15.5175 O.2         1 MOL      -0.1506
     31 O9         23.0987   36.7351   16.6392 O.2         1 MOL      -0.1506
     32 C5         21.6880   38.5973   15.6014 C.ar        1 MOL       0.1007
     33 C6         21.9624   39.8078   16.2814 C.ar        1 MOL      -0.0433
     34 C7         22.2134   40.9965   15.5599 C.ar        1 MOL      -0.0517
     35 C4         21.6597   38.5763   14.1878 C.ar        1 MOL      -0.0206
     36 C3         21.9380   39.7632   13.4938 C.ar        1 MOL       0.0595
     37 S1         22.0666   40.0604   11.8101 S.3         1 MOL       0.0026
     38 C1         22.4529   41.7234   12.0124 C.2         1 MOL       0.0809
     39 N1         22.4813   42.0198   13.3321 N.2         1 MOL      -0.2931
     40 C2         22.2099   40.9712   14.1529 C.ar        1 MOL       0.0375
     41 H1         16.4838   43.0863   18.7592 H           1 MOL       0.1855
     42 H2         15.0242   43.4106   16.7808 H           1 MOL       0.0584
     43 H3         16.2642   42.9622   14.9154 H           1 MOL       0.0313
     44 H4         16.0093   41.2276   15.1617 H           1 MOL       0.0313
     45 H5         18.1839   40.9742   16.0258 H           1 MOL       0.0503
     46 H6         18.5028   42.6300   15.4336 H           1 MOL       0.0503
     47 H7         13.9970   41.0250   16.7244 H           1 MOL       0.0634
     48 H8         14.0138   41.8769   18.2626 H           1 MOL       0.0634
     49 H9         16.3138   38.5146   19.4791 H           1 MOL       0.1873
     50 H10        17.3040   36.5989   19.1385 H           1 MOL       0.0604
     51 H11        14.8850   36.6976   17.4630 H           1 MOL       0.0449
     52 H12        15.4869   35.4572   18.5020 H           1 MOL       0.0449
     53 H13        15.9799   33.3944   17.4572 H           1 MOL       0.0557
     54 H14        16.4942   32.0780   15.4933 H           1 MOL       0.0599
     55 H15        16.9024   33.1654   13.3645 H           1 MOL       0.0559
     56 H16        16.7566   35.5887   13.1895 H           1 MOL       0.0599
     57 H17        16.2544   36.9209   15.1360 H           1 MOL       0.0557
     58 H18        18.0874   37.7755   16.4502 H           1 MOL       0.0634
     59 H19        18.8480   35.9697   15.9224 H           1 MOL       0.2100
     60 H20        19.2396   37.8204   19.1844 H           1 MOL       0.0504
     61 H21        19.6493   38.7894   17.7876 H           1 MOL       0.0504
     62 H22        21.8708   37.5121   19.6373 H           1 MOL       0.0481
     63 H23        22.3882   36.0432   18.8508 H           1 MOL       0.0481
     64 H24        20.3004   36.4177   20.9525 H           1 MOL       0.0314
     65 H25        19.2878   34.1326   20.4943 H           1 MOL       0.0233
     66 H26        19.9905   34.2260   18.8650 H           1 MOL       0.0233
     67 H27        18.7682   35.4238   19.4081 H           1 MOL       0.0233
     68 H28        21.8891   33.8763   20.5858 H           1 MOL       0.0266
     69 H29        21.3551   34.6793   22.0723 H           1 MOL       0.0266
     70 H30        23.7228   34.8529   22.0552 H           1 MOL       0.0230
     71 H31        23.1514   36.4776   21.6108 H           1 MOL       0.0230
     72 H32        23.7827   35.3862   20.3579 H           1 MOL       0.0230
     73 H33        22.0149   39.8268   17.3038 H           1 MOL       0.0580
     74 H34        22.4275   41.8640   16.0563 H           1 MOL       0.0584
     75 H35        21.4914   37.7139   13.6656 H           1 MOL       0.0592
     76 H36        22.6346   42.3806   11.2550 H           1 MOL       0.1260
@<TRIPOS>BOND
     1     1     2   2
     2     2     3  am
     3     2     6   1
     4     3     4   1
     5     4     5   1
     6     4     7   1
     7     5     6   1
     8     7     8   1
     9     8     9   1
    10     9    10   2
    11     9    11  am
    12    11    12   1
    13    12    13   1
    14    12    20   1
    15    13    14   1
    16    14    15  ar
    17    14    19  ar
    18    15    16  ar
    19    16    17  ar
    20    17    18  ar
    21    18    19  ar
    22    20    21   1
    23    20    22   1
    24    22    23   1
    25    23    24   1
    26    23    29  am
    27    24    25   1
    28    25    26   1
    29    25    27   1
    30    27    28   1
    31    29    30   2
    32    29    31   2
    33    29    32   1
    34    32    33  ar
    35    32    35  ar
    36    33    34  ar
    37    34    40  ar
    38    35    36  ar
    39    36    37   1
    40    36    40  ar
    41    37    38   1
    42    38    39   2
    43    39    40   1
    44     3    41   1
    45     4    42   1
    46     5    43   1
    47     5    44   1
    48     6    45   1
    49     6    46   1
    50     7    47   1
    51     7    48   1
    52    11    49   1
    53    12    50   1
    54    13    51   1
    55    13    52   1
    56    15    53   1
    57    16    54   1
    58    17    55   1
    59    18    56   1
    60    19    57   1
    61    20    58   1
    62    21    59   1
    63    22    60   1
    64    22    61   1
    65    24    62   1
    66    24    63   1
    67    25    64   1
    68    26    65   1
    69    26    66   1
    70    26    67   1
    71    27    68   1
    72    27    69   1
    73    28    70   1
    74    28    71   1
    75    28    72   1
    76    33    73   1
    77    34    74   1
    78    35    75   1
    79    38    76   1
@<TRIPOS>SUBSTRUCTURE
     1  MOL      2

