@<TRIPOS>MOLECULE
4djv_ligand_046
    50    53
SMALL
GAST_HUCK
****
This file was generated by PARSER (from files_GN.cpp)

@<TRIPOS>ATOM
      1 O1         19.7933   13.3339   23.3408 O.2         1 MOL      -0.3721
      2 C1         20.1937   12.1764   23.2764 C.2         1 MOL       0.1984
      3 C2         19.6348   11.0798   24.0714 C.3         1 MOL       0.1861
      4 N1         20.4083   10.0241   23.4898 N.pl3       1 MOL      -0.2773
      5 C3         21.2755   10.4581   22.5678 C.cat       1 MOL       0.3179
      6 N2         21.1577   11.7903   22.4597 N.am        1 MOL      -0.2211
      7 N3         22.0869    9.6495   21.8660 N.pl3       1 MOL      -0.2550
      8 C4         21.9478   12.6069   21.5789 C.3         1 MOL       0.0234
      9 C5         19.9696   11.2570   25.5432 C.ar        1 MOL      -0.0137
     10 C6         19.5655   12.4270   26.2437 C.ar        1 MOL      -0.0453
     11 C7         19.7824   12.5744   27.6250 C.ar        1 MOL      -0.0390
     12 C8         20.4285   11.5580   28.3469 C.ar        1 MOL      -0.0398
     13 C9         20.8616   10.3991   27.6815 C.ar        1 MOL      -0.0390
     14 C10        20.6331   10.2523   26.3017 C.ar        1 MOL      -0.0453
     15 C11        18.1689   10.8103   23.7565 C.ar        1 MOL      -0.0130
     16 C12        17.1057   11.0945   24.6549 C.ar        1 MOL      -0.0451
     17 C13        15.7717   10.7638   24.3620 C.ar        1 MOL      -0.0383
     18 C14        15.4575   10.0961   23.1715 C.ar        1 MOL      -0.0321
     19 C15        16.4700    9.7863   22.2342 C.ar        1 MOL       0.0021
     20 C16        17.7984   10.1935   22.5303 C.ar        1 MOL      -0.0377
     21 C17        15.6270    7.4620   18.7609 C.ar        1 MOL      -0.0329
     22 C18        17.1165    8.0784   20.5676 C.ar        1 MOL      -0.0254
     23 C19        16.1819    9.0263   21.0602 C.ar        1 MOL      -0.0214
     24 C20        14.9596    9.1749   20.3598 C.ar        1 MOL      -0.0645
     25 C21        14.6851    8.3992   19.2178 C.ar        1 MOL      -0.0697
     26 C22        16.8541    7.2871   19.4268 C.ar        1 MOL       0.0911
     27 O2         17.7595    6.4236   18.8477 O.3         1 MOL      -0.3214
     28 C23        18.6407    5.6598   19.6896 C.3         1 MOL       0.0593
     29 H1         20.2960    9.0858   23.7129 H           1 MOL       0.3068
     30 H2         22.0460    8.6897   21.9949 H           1 MOL       0.3199
     31 H3         22.6730   10.0192   21.1865 H           1 MOL       0.3199
     32 H4         21.7103   13.6671   21.6777 H           1 MOL       0.0484
     33 H5         21.7765   12.3135   20.5415 H           1 MOL       0.0484
     34 H6         23.0061   12.4773   21.8128 H           1 MOL       0.0484
     35 H7         19.0538   13.1659   25.7611 H           1 MOL       0.0795
     36 H8         19.4533   13.4112   28.1121 H           1 MOL       0.0681
     37 H9         20.5728   11.6542   29.3593 H           1 MOL       0.0806
     38 H10        21.3265    9.6551   28.2072 H           1 MOL       0.0681
     39 H11        20.9400    9.3831   25.8681 H           1 MOL       0.0795
     40 H12        17.2826   11.5485   25.5518 H           1 MOL       0.0796
     41 H13        15.0320   10.9881   25.0339 H           1 MOL       0.0682
     42 H14        14.4922    9.8083   23.0162 H           1 MOL       0.0813
     43 H15        18.5292   10.0055   21.8430 H           1 MOL       0.0801
     44 H16        15.4247    6.9211   17.9248 H           1 MOL       0.0545
     45 H17        18.0099    7.9563   21.0426 H           1 MOL       0.0544
     46 H18        14.2675    9.8682   20.6563 H           1 MOL       0.0532
     47 H19        13.8108    8.5289   18.7054 H           1 MOL       0.0590
     48 H20        19.1864    4.9455   19.0704 H           1 MOL       0.0577
     49 H21        18.0935    5.0999   20.4452 H           1 MOL       0.0577
     50 H22        19.3688    6.3080   20.1737 H           1 MOL       0.0577
@<TRIPOS>BOND
     1     2     1   2
     2     3     2   1
     3     2     6  am
     4     3     4   1
     5     3     9   1
     6    15     3   1
     7     4     5  ar
     8     5     6   1
     9     5     7  ar
    10     6     8   1
    11     9    10  ar
    12     9    14  ar
    13    10    11  ar
    14    11    12  ar
    15    13    12  ar
    16    14    13  ar
    17    15    16  ar
    18    20    15  ar
    19    17    16  ar
    20    18    17  ar
    21    19    18  ar
    22    19    20  ar
    23    23    19   1
    24    21    25  ar
    25    26    21  ar
    26    22    23  ar
    27    22    26  ar
    28    23    24  ar
    29    24    25  ar
    30    26    27   1
    31    27    28   1
    32     4    29   1
    33     7    30   1
    34     7    31   1
    35     8    32   1
    36     8    33   1
    37     8    34   1
    38    10    35   1
    39    11    36   1
    40    12    37   1
    41    13    38   1
    42    14    39   1
    43    16    40   1
    44    17    41   1
    45    18    42   1
    46    20    43   1
    47    21    44   1
    48    22    45   1
    49    24    46   1
    50    25    47   1
    51    28    48   1
    52    28    49   1
    53    28    50   1
@<TRIPOS>SUBSTRUCTURE
     1  MOL      2

