@<TRIPOS>MOLECULE
4djv_ligand_012
    50    53
SMALL
GAST_HUCK
****
This file was generated by PARSER (from files_GN.cpp)

@<TRIPOS>ATOM
      1 O1         21.4488   13.2425   23.4178 O.2         1 MOL      -0.3721
      2 C1         21.7106   12.1446   23.8924 C.2         1 MOL       0.1984
      3 C2         21.0177   11.5736   25.0494 C.3         1 MOL       0.1861
      4 N1         21.6115   10.2724   24.9904 N.pl3       1 MOL      -0.2773
      5 C3         22.5354   10.1597   24.0295 C.cat       1 MOL       0.3179
      6 N2         22.6097   11.3247   23.3677 N.am        1 MOL      -0.2211
      7 N3         23.2236    9.0347   23.7694 N.pl3       1 MOL      -0.2550
      8 C4         23.4962   11.5810   22.2675 C.3         1 MOL       0.0234
      9 C5         21.4173   12.2458   26.3543 C.ar        1 MOL      -0.0137
     10 C6         21.5313   13.6614   26.4588 C.ar        1 MOL      -0.0453
     11 C7         21.8250   14.2913   27.6808 C.ar        1 MOL      -0.0390
     12 C8         22.0129   13.5262   28.8420 C.ar        1 MOL      -0.0398
     13 C9         21.8896   12.1278   28.7786 C.ar        1 MOL      -0.0390
     14 C10        21.5786   11.5034   27.5532 C.ar        1 MOL      -0.0453
     15 C11        19.5225   11.4825   24.8067 C.ar        1 MOL      -0.0130
     16 C12        18.5910   12.2815   25.5195 C.ar        1 MOL      -0.0451
     17 C13        17.2087   12.1746   25.3069 C.ar        1 MOL      -0.0383
     18 C14        16.7124   11.2469   24.3826 C.ar        1 MOL      -0.0321
     19 C15        17.5949   10.4206   23.6439 C.ar        1 MOL       0.0021
     20 C16        18.9887   10.5768   23.8440 C.ar        1 MOL      -0.0377
     21 C17        15.9071    7.4885   21.0595 C.ar        1 MOL      -0.0329
     22 C18        17.5014    9.2938   21.4332 C.ar        1 MOL      -0.0254
     23 C19        17.0695    9.4167   22.7785 C.ar        1 MOL      -0.0214
     24 C20        16.0750    8.5255   23.2530 C.ar        1 MOL      -0.0645
     25 C21        15.4913    7.5804   22.3939 C.ar        1 MOL      -0.0697
     26 C22        16.9316    8.3311   20.5726 C.ar        1 MOL       0.0911
     27 O2         17.3184    8.3337   19.2567 O.3         1 MOL      -0.3214
     28 C23        17.4924    7.0587   18.6183 C.3         1 MOL       0.0593
     29 H1         21.3654    9.5431   25.5779 H           1 MOL       0.3068
     30 H2         23.0491    8.2180   24.2609 H           1 MOL       0.3199
     31 H3         23.8600    9.0194   23.0378 H           1 MOL       0.3199
     32 H4         23.4217   12.6082   21.9050 H           1 MOL       0.0484
     33 H5         23.2631   10.9062   21.4408 H           1 MOL       0.0484
     34 H6         24.5274   11.4104   22.5848 H           1 MOL       0.0484
     35 H7         21.3621   14.2595   25.6509 H           1 MOL       0.0795
     36 H8         21.8789   15.3129   27.7244 H           1 MOL       0.0681
     37 H9         22.2232   13.9860   29.7308 H           1 MOL       0.0806
     38 H10        22.0074   11.5689   29.6272 H           1 MOL       0.0681
     39 H11        21.4559   10.4868   27.5635 H           1 MOL       0.0795
     40 H12        18.8976   12.9599   26.2165 H           1 MOL       0.0796
     41 H13        16.5623   12.7599   25.8455 H           1 MOL       0.0682
     42 H14        15.6962   11.1758   24.2575 H           1 MOL       0.0813
     43 H15        19.6221    9.9814   23.3094 H           1 MOL       0.0801
     44 H16        15.4559    6.8104   20.4404 H           1 MOL       0.0545
     45 H17        18.2105    9.9343   21.0607 H           1 MOL       0.0544
     46 H18        15.7640    8.5651   24.2250 H           1 MOL       0.0532
     47 H19        14.7540    6.9624   22.7405 H           1 MOL       0.0590
     48 H20        17.9946    7.2315   17.6677 H           1 MOL       0.0577
     49 H21        16.5256    6.5879   18.4158 H           1 MOL       0.0577
     50 H22        18.1050    6.3822   19.2222 H           1 MOL       0.0577
@<TRIPOS>BOND
     1     2     1   2
     2     3     2   1
     3     2     6  am
     4     3     4   1
     5     3     9   1
     6    15     3   1
     7     4     5  ar
     8     5     6   1
     9     5     7  ar
    10     6     8   1
    11     9    10  ar
    12     9    14  ar
    13    10    11  ar
    14    11    12  ar
    15    13    12  ar
    16    14    13  ar
    17    15    16  ar
    18    20    15  ar
    19    17    16  ar
    20    18    17  ar
    21    19    18  ar
    22    19    20  ar
    23    23    19   1
    24    21    25  ar
    25    26    21  ar
    26    22    23  ar
    27    22    26  ar
    28    23    24  ar
    29    24    25  ar
    30    26    27   1
    31    27    28   1
    32     4    29   1
    33     7    30   1
    34     7    31   1
    35     8    32   1
    36     8    33   1
    37     8    34   1
    38    10    35   1
    39    11    36   1
    40    12    37   1
    41    13    38   1
    42    14    39   1
    43    16    40   1
    44    17    41   1
    45    18    42   1
    46    20    43   1
    47    21    44   1
    48    22    45   1
    49    24    46   1
    50    25    47   1
    51    28    48   1
    52    28    49   1
    53    28    50   1
@<TRIPOS>SUBSTRUCTURE
     1  MOL      2

