@<TRIPOS>MOLECULE
4djv_ligand_051
    50    53
SMALL
GAST_HUCK
****
This file was generated by PARSER (from files_GN.cpp)

@<TRIPOS>ATOM
      1 O1         27.2393   10.1858   20.3306 O.2         1 MOL      -0.3721
      2 C1         28.3325   10.1907   20.8859 C.2         1 MOL       0.1984
      3 C2         29.3307   11.2374   20.6671 C.3         1 MOL       0.1861
      4 N1         30.3036   10.7809   21.6096 N.pl3       1 MOL      -0.2773
      5 C3         29.9471    9.6385   22.2057 C.cat       1 MOL       0.3179
      6 N2         28.7363    9.2743   21.7493 N.am        1 MOL      -0.2211
      7 N3         30.6917    9.0018   23.1272 N.pl3       1 MOL      -0.2550
      8 C4         28.0422    8.0900   22.1610 C.3         1 MOL       0.0234
      9 C5         30.0166   11.1776   19.3155 C.ar        1 MOL      -0.0137
     10 C6         29.6516   10.2959   18.2608 C.ar        1 MOL      -0.0453
     11 C7         30.3943   10.2383   17.0660 C.ar        1 MOL      -0.0390
     12 C8         31.5156   11.0640   16.8909 C.ar        1 MOL      -0.0398
     13 C9         31.8592   11.9914   17.8870 C.ar        1 MOL      -0.0390
     14 C10        31.1321   12.0273   19.0884 C.ar        1 MOL      -0.0453
     15 C11        28.7979   12.5950   21.0944 C.ar        1 MOL      -0.0130
     16 C12        28.7918   13.7377   20.2481 C.ar        1 MOL      -0.0451
     17 C13        28.3700   14.9956   20.7047 C.ar        1 MOL      -0.0383
     18 C14        27.8806   15.1385   22.0110 C.ar        1 MOL      -0.0321
     19 C15        27.7955   14.0185   22.8654 C.ar        1 MOL       0.0021
     20 C16        28.2731   12.7708   22.4037 C.ar        1 MOL      -0.0377
     21 C17        25.8823   14.3871   26.6407 C.ar        1 MOL      -0.0329
     22 C18        27.6799   15.0159   25.1197 C.ar        1 MOL      -0.0254
     23 C19        27.1813   14.1291   24.1385 C.ar        1 MOL      -0.0214
     24 C20        26.0186   13.3777   24.4280 C.ar        1 MOL      -0.0645
     25 C21        25.3656   13.5162   25.6653 C.ar        1 MOL      -0.0697
     26 C22        27.0526   15.1282   26.3799 C.ar        1 MOL       0.0911
     27 O2         27.5179   16.0012   27.3275 O.3         1 MOL      -0.3214
     28 C23        28.7418   15.5781   27.9526 C.3         1 MOL       0.0593
     29 H1         31.1320   11.2461   21.8044 H           1 MOL       0.3068
     30 H2         31.5681    9.3356   23.3747 H           1 MOL       0.3199
     31 H3         30.3619    8.1875   23.5416 H           1 MOL       0.3199
     32 H4         27.0525    8.0090   21.7068 H           1 MOL       0.0484
     33 H5         27.9242    8.0994   23.2426 H           1 MOL       0.0484
     34 H6         28.6223    7.2106   21.8833 H           1 MOL       0.0484
     35 H7         28.8588    9.6635   18.3570 H           1 MOL       0.0795
     36 H8         30.1353    9.5857   16.3245 H           1 MOL       0.0681
     37 H9         32.0766   10.9988   16.0396 H           1 MOL       0.0806
     38 H10        32.6531   12.6231   17.7572 H           1 MOL       0.0681
     39 H11        31.4054   12.7085   19.8017 H           1 MOL       0.0795
     40 H12        29.1063   13.6820   19.2823 H           1 MOL       0.0796
     41 H13        28.4041   15.8051   20.0823 H           1 MOL       0.0682
     42 H14        27.5500   16.0581   22.3200 H           1 MOL       0.0813
     43 H15        28.2343   11.9684   23.0371 H           1 MOL       0.0801
     44 H16        25.3986   14.4842   27.5364 H           1 MOL       0.0545
     45 H17        28.5134   15.5796   24.9304 H           1 MOL       0.0544
     46 H18        25.6200   12.7468   23.7269 H           1 MOL       0.0532
     47 H19        24.5084   12.9903   25.8495 H           1 MOL       0.0590
     48 H20        29.0046   16.3052   28.7197 H           1 MOL       0.0577
     49 H21        29.5621   15.5380   27.2306 H           1 MOL       0.0577
     50 H22        28.6292   14.6026   28.4328 H           1 MOL       0.0577
@<TRIPOS>BOND
     1     2     1   2
     2     3     2   1
     3     2     6  am
     4     3     4   1
     5     3     9   1
     6    15     3   1
     7     4     5  ar
     8     5     6   1
     9     5     7  ar
    10     6     8   1
    11     9    10  ar
    12     9    14  ar
    13    10    11  ar
    14    11    12  ar
    15    13    12  ar
    16    14    13  ar
    17    15    16  ar
    18    20    15  ar
    19    17    16  ar
    20    18    17  ar
    21    19    18  ar
    22    19    20  ar
    23    23    19   1
    24    21    25  ar
    25    26    21  ar
    26    22    23  ar
    27    22    26  ar
    28    23    24  ar
    29    24    25  ar
    30    26    27   1
    31    27    28   1
    32     4    29   1
    33     7    30   1
    34     7    31   1
    35     8    32   1
    36     8    33   1
    37     8    34   1
    38    10    35   1
    39    11    36   1
    40    12    37   1
    41    13    38   1
    42    14    39   1
    43    16    40   1
    44    17    41   1
    45    18    42   1
    46    20    43   1
    47    21    44   1
    48    22    45   1
    49    24    46   1
    50    25    47   1
    51    28    48   1
    52    28    49   1
    53    28    50   1
@<TRIPOS>SUBSTRUCTURE
     1  MOL      2

