@<TRIPOS>MOLECULE
4djv_ligand_027
    50    53
SMALL
GAST_HUCK
****
This file was generated by PARSER (from files_GN.cpp)

@<TRIPOS>ATOM
      1 O1         15.5654    7.5603   24.4384 O.2         1 MOL      -0.3721
      2 C1         15.4176    8.2619   23.4480 C.2         1 MOL       0.1984
      3 C2         15.8072    9.6769   23.3816 C.3         1 MOL       0.1861
      4 N1         15.5049    9.8738   21.9951 N.pl3       1 MOL      -0.2773
      5 C3         15.0426    8.7733   21.3948 C.cat       1 MOL       0.3179
      6 N2         14.9413    7.7958   22.3058 N.am        1 MOL      -0.2211
      7 N3         14.7944    8.6882   20.0773 N.pl3       1 MOL      -0.2550
      8 C4         14.4220    6.4852   22.0368 C.3         1 MOL       0.0234
      9 C5         14.9123   10.5719   24.2248 C.ar        1 MOL      -0.0137
     10 C6         14.5718   10.2540   25.5687 C.ar        1 MOL      -0.0453
     11 C7         13.7474   11.0906   26.3460 C.ar        1 MOL      -0.0390
     12 C8         13.2608   12.2907   25.8035 C.ar        1 MOL      -0.0398
     13 C9         13.6065   12.6539   24.4968 C.ar        1 MOL      -0.0390
     14 C10        14.4278   11.8135   23.7241 C.ar        1 MOL      -0.0453
     15 C11        17.2974    9.8603   23.6002 C.ar        1 MOL      -0.0130
     16 C12        18.2326    9.4919   22.5957 C.ar        1 MOL      -0.0451
     17 C13        19.6149    9.6743   22.7628 C.ar        1 MOL      -0.0383
     18 C14        20.1101   10.1964   23.9640 C.ar        1 MOL      -0.0321
     19 C15        19.2312   10.5540   25.0074 C.ar        1 MOL       0.0021
     20 C16        17.8373   10.3900   24.8066 C.ar        1 MOL      -0.0377
     21 C17        20.7587   11.9313   28.7266 C.ar        1 MOL      -0.0329
     22 C18        19.2796   12.2403   26.8162 C.ar        1 MOL      -0.0254
     23 C19        19.7376   11.0248   26.2465 C.ar        1 MOL      -0.0214
     24 C20        20.7007   10.2672   26.9510 C.ar        1 MOL      -0.0645
     25 C21        21.2045   10.7159   28.1835 C.ar        1 MOL      -0.0697
     26 C22        19.7735   12.6872   28.0617 C.ar        1 MOL       0.0911
     27 O2         19.3138   13.8652   28.5859 O.3         1 MOL      -0.3214
     28 C23        18.4954   13.6956   29.7592 C.3         1 MOL       0.0593
     29 H1         15.7130   10.6873   21.5148 H           1 MOL       0.3068
     30 H2         14.9548    9.4532   19.5036 H           1 MOL       0.3199
     31 H3         14.4795    7.8534   19.6899 H           1 MOL       0.3199
     32 H4         14.3780    5.8590   22.9297 H           1 MOL       0.0484
     33 H5         15.0495    5.9870   21.2990 H           1 MOL       0.0484
     34 H6         13.4098    6.5704   21.6405 H           1 MOL       0.0484
     35 H7         14.9298    9.4192   26.0208 H           1 MOL       0.0795
     36 H8         13.5162   10.8265   27.3071 H           1 MOL       0.0681
     37 H9         12.6715   12.8999   26.3705 H           1 MOL       0.0806
     38 H10        13.2676   13.5330   24.1072 H           1 MOL       0.0681
     39 H11        14.6729   12.1214   22.7761 H           1 MOL       0.0795
     40 H12        17.9209    9.0864   21.7134 H           1 MOL       0.0796
     41 H13        20.2609    9.4159   22.0096 H           1 MOL       0.0682
     42 H14        21.1212   10.3186   24.0694 H           1 MOL       0.0813
     43 H15        17.2117   10.6372   25.5728 H           1 MOL       0.0801
     44 H16        21.1381   12.2542   29.6201 H           1 MOL       0.0545
     45 H17        18.5882   12.8109   26.3216 H           1 MOL       0.0544
     46 H18        21.0386    9.3760   26.5806 H           1 MOL       0.0532
     47 H19        21.8963   10.1558   28.6915 H           1 MOL       0.0590
     48 H20        18.1485   14.6781   30.0778 H           1 MOL       0.0577
     49 H21        19.0622   13.2593   30.5862 H           1 MOL       0.0577
     50 H22        17.6209   13.0715   29.5530 H           1 MOL       0.0577
@<TRIPOS>BOND
     1     2     1   2
     2     3     2   1
     3     2     6  am
     4     3     4   1
     5     3     9   1
     6    15     3   1
     7     4     5  ar
     8     5     6   1
     9     5     7  ar
    10     6     8   1
    11     9    10  ar
    12     9    14  ar
    13    10    11  ar
    14    11    12  ar
    15    13    12  ar
    16    14    13  ar
    17    15    16  ar
    18    20    15  ar
    19    17    16  ar
    20    18    17  ar
    21    19    18  ar
    22    19    20  ar
    23    23    19   1
    24    21    25  ar
    25    26    21  ar
    26    22    23  ar
    27    22    26  ar
    28    23    24  ar
    29    24    25  ar
    30    26    27   1
    31    27    28   1
    32     4    29   1
    33     7    30   1
    34     7    31   1
    35     8    32   1
    36     8    33   1
    37     8    34   1
    38    10    35   1
    39    11    36   1
    40    12    37   1
    41    13    38   1
    42    14    39   1
    43    16    40   1
    44    17    41   1
    45    18    42   1
    46    20    43   1
    47    21    44   1
    48    22    45   1
    49    24    46   1
    50    25    47   1
    51    28    48   1
    52    28    49   1
    53    28    50   1
@<TRIPOS>SUBSTRUCTURE
     1  MOL      2

