@<TRIPOS>MOLECULE
4djv_ligand_020
    50    53
SMALL
GAST_HUCK
****
This file was generated by PARSER (from files_GN.cpp)

@<TRIPOS>ATOM
      1 O1         20.7254   11.2149   24.0656 O.2         1 MOL      -0.3721
      2 C1         21.4846   10.7867   23.2134 C.2         1 MOL       0.1984
      3 C2         21.4266   11.1898   21.7975 C.3         1 MOL       0.1861
      4 N1         22.3654   10.2318   21.3004 N.pl3       1 MOL      -0.2773
      5 C3         22.9373    9.5067   22.2668 C.cat       1 MOL       0.3179
      6 N2         22.3716    9.8240   23.4382 N.am        1 MOL      -0.2211
      7 N3         23.9094    8.6029   22.0344 N.pl3       1 MOL      -0.2550
      8 C4         22.6583    9.1884   24.6945 C.3         1 MOL       0.0234
      9 C5         20.0575   10.9327   21.2000 C.ar        1 MOL      -0.0137
     10 C6         19.2515   11.9414   20.5999 C.ar        1 MOL      -0.0453
     11 C7         17.9683   11.6608   20.1007 C.ar        1 MOL      -0.0390
     12 C8         17.4510   10.3609   20.1867 C.ar        1 MOL      -0.0398
     13 C9         18.2209    9.3366   20.7563 C.ar        1 MOL      -0.0390
     14 C10        19.5092    9.6193   21.2480 C.ar        1 MOL      -0.0453
     15 C11        21.9750   12.5889   21.5620 C.ar        1 MOL      -0.0130
     16 C12        22.7197   12.8893   20.3899 C.ar        1 MOL      -0.0451
     17 C13        23.2170   14.1769   20.1429 C.ar        1 MOL      -0.0383
     18 C14        22.9421   15.2149   21.0433 C.ar        1 MOL      -0.0321
     19 C15        22.1262   14.9895   22.1738 C.ar        1 MOL       0.0021
     20 C16        21.6477   13.6789   22.4108 C.ar        1 MOL      -0.0377
     21 C17        21.0437   18.3482   24.5405 C.ar        1 MOL      -0.0329
     22 C18        20.3999   16.4197   23.2032 C.ar        1 MOL      -0.0254
     23 C19        21.7593   16.0727   23.0152 C.ar        1 MOL      -0.0214
     24 C20        22.7544   16.8654   23.6383 C.ar        1 MOL      -0.0645
     25 C21        22.3981   17.9965   24.3971 C.ar        1 MOL      -0.0697
     26 C22        20.0359   17.5494   23.9692 C.ar        1 MOL       0.0911
     27 O2         18.7132   17.9084   24.0332 O.3         1 MOL      -0.3214
     28 C23        18.0995   17.7337   25.3201 C.3         1 MOL       0.0593
     29 H1         22.5952   10.1475   20.3612 H           1 MOL       0.3068
     30 H2         24.2474    8.4782   21.1362 H           1 MOL       0.3199
     31 H3         24.2952    8.1131   22.7719 H           1 MOL       0.3199
     32 H4         22.0964    9.6321   25.5198 H           1 MOL       0.0484
     33 H5         23.7214    9.2804   24.9212 H           1 MOL       0.0484
     34 H6         22.3963    8.1312   24.6409 H           1 MOL       0.0484
     35 H7         19.5853   12.9020   20.5165 H           1 MOL       0.0795
     36 H8         17.4077   12.4044   19.6745 H           1 MOL       0.0681
     37 H9         16.5157   10.1530   19.8334 H           1 MOL       0.0806
     38 H10        17.8547    8.3848   20.8114 H           1 MOL       0.0681
     39 H11        20.0447    8.8534   21.6534 H           1 MOL       0.0795
     40 H12        22.9220   12.1654   19.6984 H           1 MOL       0.0796
     41 H13        23.7574   14.3662   19.2958 H           1 MOL       0.0682
     42 H14        23.2889   16.1498   20.8331 H           1 MOL       0.0813
     43 H15        21.0547   13.5259   23.2276 H           1 MOL       0.0801
     44 H16        20.7957   19.1900   25.0668 H           1 MOL       0.0545
     45 H17        19.6643   15.8798   22.7385 H           1 MOL       0.0544
     46 H18        23.7446   16.6383   23.5252 H           1 MOL       0.0532
     47 H19        23.1276   18.5772   24.8156 H           1 MOL       0.0590
     48 H20        17.0433   17.9827   25.2216 H           1 MOL       0.0577
     49 H21        18.5360   18.4043   26.0629 H           1 MOL       0.0577
     50 H22        18.1773   16.7011   25.6685 H           1 MOL       0.0577
@<TRIPOS>BOND
     1     2     1   2
     2     3     2   1
     3     2     6  am
     4     3     4   1
     5     3     9   1
     6    15     3   1
     7     4     5  ar
     8     5     6   1
     9     5     7  ar
    10     6     8   1
    11     9    10  ar
    12     9    14  ar
    13    10    11  ar
    14    11    12  ar
    15    13    12  ar
    16    14    13  ar
    17    15    16  ar
    18    20    15  ar
    19    17    16  ar
    20    18    17  ar
    21    19    18  ar
    22    19    20  ar
    23    23    19   1
    24    21    25  ar
    25    26    21  ar
    26    22    23  ar
    27    22    26  ar
    28    23    24  ar
    29    24    25  ar
    30    26    27   1
    31    27    28   1
    32     4    29   1
    33     7    30   1
    34     7    31   1
    35     8    32   1
    36     8    33   1
    37     8    34   1
    38    10    35   1
    39    11    36   1
    40    12    37   1
    41    13    38   1
    42    14    39   1
    43    16    40   1
    44    17    41   1
    45    18    42   1
    46    20    43   1
    47    21    44   1
    48    22    45   1
    49    24    46   1
    50    25    47   1
    51    28    48   1
    52    28    49   1
    53    28    50   1
@<TRIPOS>SUBSTRUCTURE
     1  MOL      2

