@<TRIPOS>MOLECULE
4djv_ligand_013
    50    53
SMALL
GAST_HUCK
****
This file was generated by PARSER (from files_GN.cpp)

@<TRIPOS>ATOM
      1 O1         16.3522   10.4523   21.0441 O.2         1 MOL      -0.3721
      2 C1         16.5495    9.8323   22.0780 C.2         1 MOL       0.1984
      3 C2         17.6585   10.1002   23.0082 C.3         1 MOL       0.1861
      4 N1         17.3190    9.0685   23.9468 N.pl3       1 MOL      -0.2773
      5 C3         16.2243    8.3759   23.6224 C.cat       1 MOL       0.3179
      6 N2         15.7514    8.8517   22.4632 N.am        1 MOL      -0.2211
      7 N3         15.7360    7.3759   24.3794 N.pl3       1 MOL      -0.2550
      8 C4         14.5901    8.3356   21.7808 C.3         1 MOL       0.0234
      9 C5         19.0561    9.8442   22.4862 C.ar        1 MOL      -0.0137
     10 C6         20.1196    9.6138   23.4079 C.ar        1 MOL      -0.0453
     11 C7         21.4373    9.3584   22.9782 C.ar        1 MOL      -0.0390
     12 C8         21.7357    9.3499   21.6062 C.ar        1 MOL      -0.0398
     13 C9         20.7163    9.5906   20.6708 C.ar        1 MOL      -0.0390
     14 C10        19.3954    9.8401   21.1038 C.ar        1 MOL      -0.0453
     15 C11        17.6011   11.4668   23.6591 C.ar        1 MOL      -0.0130
     16 C12        17.3842   12.6447   22.8906 C.ar        1 MOL      -0.0451
     17 C13        17.3195   13.9149   23.4885 C.ar        1 MOL      -0.0383
     18 C14        17.5148   14.0504   24.8707 C.ar        1 MOL      -0.0321
     19 C15        17.8019   12.9216   25.6715 C.ar        1 MOL       0.0021
     20 C16        17.8342   11.6474   25.0520 C.ar        1 MOL      -0.0377
     21 C17        18.7885   13.5069   29.7732 C.ar        1 MOL      -0.0329
     22 C18        17.2545   13.8263   27.9118 C.ar        1 MOL      -0.0254
     23 C19        18.1049   13.0820   27.0550 C.ar        1 MOL      -0.0214
     24 C20        19.2946   12.5422   27.5977 C.ar        1 MOL      -0.0645
     25 C21        19.6395   12.7583   28.9430 C.ar        1 MOL      -0.0697
     26 C22        17.5940   14.0518   29.2660 C.ar        1 MOL       0.0911
     27 O2         16.7913   14.7116   30.1554 O.3         1 MOL      -0.3214
     28 C23        15.9353   15.7473   29.6360 C.3         1 MOL       0.0593
     29 H1         17.8363    8.8703   24.7462 H           1 MOL       0.3068
     30 H2         16.1969    7.1281   25.1935 H           1 MOL       0.3199
     31 H3         14.9324    6.9050   24.1054 H           1 MOL       0.3199
     32 H4         14.4412    8.8107   20.8148 H           1 MOL       0.0484
     33 H5         13.6999    8.5082   22.3876 H           1 MOL       0.0484
     34 H6         14.7055    7.2623   21.6158 H           1 MOL       0.0484
     35 H7         19.9481    9.6147   24.4145 H           1 MOL       0.0795
     36 H8         22.1771    9.1763   23.6603 H           1 MOL       0.0681
     37 H9         22.6862    9.1687   21.2855 H           1 MOL       0.0806
     38 H10        20.9279    9.5876   19.6720 H           1 MOL       0.0681
     39 H11        18.6816   10.0259   20.4002 H           1 MOL       0.0795
     40 H12        17.2617   12.5951   21.8776 H           1 MOL       0.0796
     41 H13        17.1488   14.7415   22.9119 H           1 MOL       0.0682
     42 H14        17.4845   14.9898   25.2802 H           1 MOL       0.0813
     43 H15        18.0351   10.8369   25.6359 H           1 MOL       0.0801
     44 H16        19.0389   13.6438   30.7561 H           1 MOL       0.0545
     45 H17        16.3673   14.2017   27.5551 H           1 MOL       0.0544
     46 H18        19.9335   12.0023   27.0056 H           1 MOL       0.0532
     47 H19        20.5094   12.3704   29.3180 H           1 MOL       0.0590
     48 H20        15.6145   16.3651   30.4763 H           1 MOL       0.0577
     49 H21        15.0509   15.3066   29.1657 H           1 MOL       0.0577
     50 H22        16.4487   16.3904   28.9125 H           1 MOL       0.0577
@<TRIPOS>BOND
     1     2     1   2
     2     3     2   1
     3     2     6  am
     4     3     4   1
     5     3     9   1
     6    15     3   1
     7     4     5  ar
     8     5     6   1
     9     5     7  ar
    10     6     8   1
    11     9    10  ar
    12     9    14  ar
    13    10    11  ar
    14    11    12  ar
    15    13    12  ar
    16    14    13  ar
    17    15    16  ar
    18    20    15  ar
    19    17    16  ar
    20    18    17  ar
    21    19    18  ar
    22    19    20  ar
    23    23    19   1
    24    21    25  ar
    25    26    21  ar
    26    22    23  ar
    27    22    26  ar
    28    23    24  ar
    29    24    25  ar
    30    26    27   1
    31    27    28   1
    32     4    29   1
    33     7    30   1
    34     7    31   1
    35     8    32   1
    36     8    33   1
    37     8    34   1
    38    10    35   1
    39    11    36   1
    40    12    37   1
    41    13    38   1
    42    14    39   1
    43    16    40   1
    44    17    41   1
    45    18    42   1
    46    20    43   1
    47    21    44   1
    48    22    45   1
    49    24    46   1
    50    25    47   1
    51    28    48   1
    52    28    49   1
    53    28    50   1
@<TRIPOS>SUBSTRUCTURE
     1  MOL      2

