@<TRIPOS>MOLECULE
4djv_ligand_023
    50    53
SMALL
GAST_HUCK
****
This file was generated by PARSER (from files_GN.cpp)

@<TRIPOS>ATOM
      1 O1         20.0270   10.8146   24.1742 O.2         1 MOL      -0.3721
      2 C1         19.6639   10.7237   23.0089 C.2         1 MOL       0.1984
      3 C2         18.2607   10.8440   22.5728 C.3         1 MOL       0.1861
      4 N1         18.5073   10.6444   21.1768 N.pl3       1 MOL      -0.2773
      5 C3         19.7956   10.4658   20.8809 C.cat       1 MOL       0.3179
      6 N2         20.5102   10.5167   22.0113 N.am        1 MOL      -0.2211
      7 N3         20.2436   10.2764   19.6296 N.pl3       1 MOL      -0.2550
      8 C4         21.9404   10.3753   22.0743 C.3         1 MOL       0.0234
      9 C5         17.3824    9.7595   23.1560 C.ar        1 MOL      -0.0137
     10 C6         16.5492    8.9404   22.3433 C.ar        1 MOL      -0.0453
     11 C7         15.7603    7.9154   22.8950 C.ar        1 MOL      -0.0390
     12 C8         15.7966    7.6679   24.2773 C.ar        1 MOL      -0.0398
     13 C9         16.5595    8.5008   25.1122 C.ar        1 MOL      -0.0390
     14 C10        17.3144    9.5508   24.5599 C.ar        1 MOL      -0.0453
     15 C11        17.6075   12.1984   22.7176 C.ar        1 MOL      -0.0130
     16 C12        16.3137   12.4002   22.1675 C.ar        1 MOL      -0.0451
     17 C13        15.6827   13.6531   22.2015 C.ar        1 MOL      -0.0383
     18 C14        16.3111   14.7376   22.8333 C.ar        1 MOL      -0.0321
     19 C15        17.5815   14.5744   23.4274 C.ar        1 MOL       0.0021
     20 C16        18.2149   13.3120   23.3613 C.ar        1 MOL      -0.0377
     21 C17        19.3790   17.8828   25.3997 C.ar        1 MOL      -0.0329
     22 C18        19.1978   16.4382   23.4464 C.ar        1 MOL      -0.0254
     23 C19        18.2053   15.6628   24.0932 C.ar        1 MOL      -0.0214
     24 C20        17.8286   16.0021   25.4136 C.ar        1 MOL      -0.0645
     25 C21        18.4107   17.1070   26.0623 C.ar        1 MOL      -0.0697
     26 C22        19.7953   17.5415   24.0958 C.ar        1 MOL       0.0911
     27 O2         20.6745   18.3334   23.4022 O.3         1 MOL      -0.3214
     28 C23        21.7331   18.9089   24.1885 C.3         1 MOL       0.0593
     29 H1         17.8103   10.6383   20.5025 H           1 MOL       0.3068
     30 H2         19.6169   10.2642   18.8899 H           1 MOL       0.3199
     31 H3         21.1940   10.1721   19.4642 H           1 MOL       0.3199
     32 H4         22.3214   10.4510   23.0942 H           1 MOL       0.0484
     33 H5         22.4150   11.1588   21.4789 H           1 MOL       0.0484
     34 H6         22.2376    9.4023   21.6758 H           1 MOL       0.0484
     35 H7         16.4937    9.0893   21.3342 H           1 MOL       0.0795
     36 H8         15.1555    7.3525   22.2913 H           1 MOL       0.0681
     37 H9         15.2466    6.9039   24.6760 H           1 MOL       0.0806
     38 H10        16.5545    8.3540   26.1253 H           1 MOL       0.0681
     39 H11        17.8243   10.1603   25.2017 H           1 MOL       0.0795
     40 H12        15.8207   11.6273   21.7157 H           1 MOL       0.0796
     41 H13        14.7634   13.7728   21.7701 H           1 MOL       0.0682
     42 H14        15.8374   15.6459   22.8501 H           1 MOL       0.0813
     43 H15        19.1256   13.2099   23.8102 H           1 MOL       0.0801
     44 H16        19.7702   18.7051   25.8657 H           1 MOL       0.0545
     45 H17        19.4708   16.2215   22.4844 H           1 MOL       0.0544
     46 H18        17.1239   15.4500   25.9126 H           1 MOL       0.0532
     47 H19        18.1169   17.3581   27.0106 H           1 MOL       0.0590
     48 H20        22.4031   19.4413   23.5121 H           1 MOL       0.0577
     49 H21        22.3119   18.1394   24.7055 H           1 MOL       0.0577
     50 H22        21.3444   19.6267   24.9157 H           1 MOL       0.0577
@<TRIPOS>BOND
     1     2     1   2
     2     3     2   1
     3     2     6  am
     4     3     4   1
     5     3     9   1
     6    15     3   1
     7     4     5  ar
     8     5     6   1
     9     5     7  ar
    10     6     8   1
    11     9    10  ar
    12     9    14  ar
    13    10    11  ar
    14    11    12  ar
    15    13    12  ar
    16    14    13  ar
    17    15    16  ar
    18    20    15  ar
    19    17    16  ar
    20    18    17  ar
    21    19    18  ar
    22    19    20  ar
    23    23    19   1
    24    21    25  ar
    25    26    21  ar
    26    22    23  ar
    27    22    26  ar
    28    23    24  ar
    29    24    25  ar
    30    26    27   1
    31    27    28   1
    32     4    29   1
    33     7    30   1
    34     7    31   1
    35     8    32   1
    36     8    33   1
    37     8    34   1
    38    10    35   1
    39    11    36   1
    40    12    37   1
    41    13    38   1
    42    14    39   1
    43    16    40   1
    44    17    41   1
    45    18    42   1
    46    20    43   1
    47    21    44   1
    48    22    45   1
    49    24    46   1
    50    25    47   1
    51    28    48   1
    52    28    49   1
    53    28    50   1
@<TRIPOS>SUBSTRUCTURE
     1  MOL      2

