@<TRIPOS>MOLECULE
4djv_ligand_003
    50    53
SMALL
GAST_HUCK
****
This file was generated by PARSER (from files_GN.cpp)

@<TRIPOS>ATOM
      1 O1         19.3260   12.2097   23.5179 O.2         1 MOL      -0.3721
      2 C1         19.9689   11.1752   23.4989 C.2         1 MOL       0.1984
      3 C2         20.1039   10.3381   22.3065 C.3         1 MOL       0.1861
      4 N1         20.9488    9.3278   22.8533 N.pl3       1 MOL      -0.2773
      5 C3         21.2358    9.5492   24.1440 C.cat       1 MOL       0.3179
      6 N2         20.6297   10.6790   24.5373 N.am        1 MOL      -0.2211
      7 N3         22.0384    8.7532   24.8698 N.pl3       1 MOL      -0.2550
      8 C4         20.7132   11.2265   25.8625 C.3         1 MOL       0.0234
      9 C5         18.8503    9.5956   21.8785 C.ar        1 MOL      -0.0137
     10 C6         18.8877    8.7890   20.7076 C.ar        1 MOL      -0.0453
     11 C7         17.7466    8.1089   20.2398 C.ar        1 MOL      -0.0390
     12 C8         16.5558    8.1539   20.9844 C.ar        1 MOL      -0.0398
     13 C9         16.5064    8.8758   22.1827 C.ar        1 MOL      -0.0390
     14 C10        17.6357    9.6022   22.6139 C.ar        1 MOL      -0.0453
     15 C11        20.8222   11.1394   21.2317 C.ar        1 MOL      -0.0130
     16 C12        20.2057   11.5133   20.0092 C.ar        1 MOL      -0.0451
     17 C13        20.9066   12.2205   19.0174 C.ar        1 MOL      -0.0383
     18 C14        22.2215   12.6446   19.2579 C.ar        1 MOL      -0.0321
     19 C15        22.8532   12.3775   20.4900 C.ar        1 MOL       0.0021
     20 C16        22.1437   11.6088   21.4492 C.ar        1 MOL      -0.0377
     21 C17        26.7205   13.9382   21.3677 C.ar        1 MOL      -0.0329
     22 C18        24.4618   14.2469   20.5117 C.ar        1 MOL      -0.0254
     23 C19        24.1501   12.8904   20.7760 C.ar        1 MOL      -0.0214
     24 C20        25.1509   12.0723   21.3553 C.ar        1 MOL      -0.0645
     25 C21        26.4252   12.5890   21.6430 C.ar        1 MOL      -0.0697
     26 C22        25.7287   14.7790   20.8254 C.ar        1 MOL       0.0911
     27 O2         26.0009   16.0932   20.5440 O.3         1 MOL      -0.3214
     28 C23        26.2476   16.8990   21.7124 C.3         1 MOL       0.0593
     29 H1         21.2912    8.5750   22.3492 H           1 MOL       0.3068
     30 H2         22.4201    7.9618   24.4677 H           1 MOL       0.3199
     31 H3         22.2763    8.9936   25.7795 H           1 MOL       0.3199
     32 H4         20.1490   12.1560   25.9589 H           1 MOL       0.0484
     33 H5         21.7573   11.4306   26.1123 H           1 MOL       0.0484
     34 H6         20.3114   10.5088   26.5806 H           1 MOL       0.0484
     35 H7         19.7551    8.7071   20.1723 H           1 MOL       0.0795
     36 H8         17.7891    7.5662   19.3733 H           1 MOL       0.0681
     37 H9         15.7259    7.6530   20.6541 H           1 MOL       0.0806
     38 H10        15.6465    8.8923   22.7319 H           1 MOL       0.0681
     39 H11        17.5660   10.1068   23.4975 H           1 MOL       0.0795
     40 H12        19.2318   11.2696   19.8240 H           1 MOL       0.0796
     41 H13        20.4589   12.4333   18.1243 H           1 MOL       0.0682
     42 H14        22.7207   13.1506   18.5219 H           1 MOL       0.0813
     43 H15        22.5940   11.4255   22.3467 H           1 MOL       0.0801
     44 H16        27.6504   14.3058   21.5706 H           1 MOL       0.0545
     45 H17        23.7572   14.8695   20.1050 H           1 MOL       0.0544
     46 H18        24.9601   11.0892   21.5592 H           1 MOL       0.0532
     47 H19        27.1424   11.9853   22.0519 H           1 MOL       0.0590
     48 H20        26.4211   17.9219   21.3881 H           1 MOL       0.0577
     49 H21        27.1388   16.5571   22.2449 H           1 MOL       0.0577
     50 H22        25.3930   16.8940   22.3925 H           1 MOL       0.0577
@<TRIPOS>BOND
     1     2     1   2
     2     3     2   1
     3     2     6  am
     4     3     4   1
     5     3     9   1
     6    15     3   1
     7     4     5  ar
     8     5     6   1
     9     5     7  ar
    10     6     8   1
    11     9    10  ar
    12     9    14  ar
    13    10    11  ar
    14    11    12  ar
    15    13    12  ar
    16    14    13  ar
    17    15    16  ar
    18    20    15  ar
    19    17    16  ar
    20    18    17  ar
    21    19    18  ar
    22    19    20  ar
    23    23    19   1
    24    21    25  ar
    25    26    21  ar
    26    22    23  ar
    27    22    26  ar
    28    23    24  ar
    29    24    25  ar
    30    26    27   1
    31    27    28   1
    32     4    29   1
    33     7    30   1
    34     7    31   1
    35     8    32   1
    36     8    33   1
    37     8    34   1
    38    10    35   1
    39    11    36   1
    40    12    37   1
    41    13    38   1
    42    14    39   1
    43    16    40   1
    44    17    41   1
    45    18    42   1
    46    20    43   1
    47    21    44   1
    48    22    45   1
    49    24    46   1
    50    25    47   1
    51    28    48   1
    52    28    49   1
    53    28    50   1
@<TRIPOS>SUBSTRUCTURE
     1  MOL      2

