@<TRIPOS>MOLECULE
4djv_ligand_045
    50    53
SMALL
GAST_HUCK
****
This file was generated by PARSER (from files_GN.cpp)

@<TRIPOS>ATOM
      1 O1         17.2554   10.7307   26.0484 O.2         1 MOL      -0.3721
      2 C1         16.2873   11.3316   25.6003 C.2         1 MOL       0.1984
      3 C2         16.3156   12.7609   25.3015 C.3         1 MOL       0.1861
      4 N1         15.0083   12.8776   24.7449 N.pl3       1 MOL      -0.2773
      5 C3         14.3487   11.7086   24.7363 C.cat       1 MOL       0.3179
      6 N2         15.1424   10.7608   25.2668 N.am        1 MOL      -0.2211
      7 N3         13.1013   11.5765   24.2636 N.pl3       1 MOL      -0.2550
      8 C4         14.7803    9.3813   25.4351 C.3         1 MOL       0.0234
      9 C5         16.4682   13.4905   26.6233 C.ar        1 MOL      -0.0137
     10 C6         17.7596   13.7005   27.1755 C.ar        1 MOL      -0.0453
     11 C7         17.9437   14.3767   28.3908 C.ar        1 MOL      -0.0390
     12 C8         16.8229   14.8026   29.1269 C.ar        1 MOL      -0.0398
     13 C9         15.5354   14.5734   28.6339 C.ar        1 MOL      -0.0390
     14 C10        15.3540   13.9165   27.3972 C.ar        1 MOL      -0.0453
     15 C11        17.2836   13.1405   24.1991 C.ar        1 MOL      -0.0130
     16 C12        17.9031   14.4170   24.1515 C.ar        1 MOL      -0.0451
     17 C13        18.8510   14.7345   23.1740 C.ar        1 MOL      -0.0383
     18 C14        19.1697   13.7976   22.1868 C.ar        1 MOL      -0.0321
     19 C15        18.5183   12.5407   22.1231 C.ar        1 MOL       0.0021
     20 C16        17.5766   12.2511   23.1406 C.ar        1 MOL      -0.0377
     21 C17        19.1740    9.8270   18.8792 C.ar        1 MOL      -0.0329
     22 C18        18.6333   10.2132   21.2176 C.ar        1 MOL      -0.0254
     23 C19        18.7692   11.6191   21.0549 C.ar        1 MOL      -0.0214
     24 C20        19.1282   12.0830   19.7621 C.ar        1 MOL      -0.0645
     25 C21        19.3386   11.2080   18.6952 C.ar        1 MOL      -0.0697
     26 C22        18.7981    9.3261   20.1401 C.ar        1 MOL       0.0911
     27 O2         18.6088    7.9816   20.3014 O.3         1 MOL      -0.3214
     28 C23        17.2203    7.6061   20.2888 C.3         1 MOL       0.0593
     29 H1         14.6254   13.7091   24.4254 H           1 MOL       0.3068
     30 H2         12.6320   12.3496   23.9116 H           1 MOL       0.3199
     31 H3         12.6659   10.7082   24.2618 H           1 MOL       0.3199
     32 H4         15.5826    8.7985   25.8922 H           1 MOL       0.0484
     33 H5         14.5455    8.9366   24.4660 H           1 MOL       0.0484
     34 H6         13.9030    9.3088   26.0805 H           1 MOL       0.0484
     35 H7         18.5912   13.4054   26.6531 H           1 MOL       0.0795
     36 H8         18.8862   14.5408   28.7436 H           1 MOL       0.0681
     37 H9         16.9586   15.2781   30.0188 H           1 MOL       0.0806
     38 H10        14.7215   14.8800   29.1716 H           1 MOL       0.0681
     39 H11        14.3967   13.7496   27.0814 H           1 MOL       0.0795
     40 H12        17.6925   15.1313   24.8519 H           1 MOL       0.0796
     41 H13        19.3074   15.6499   23.1688 H           1 MOL       0.0682
     42 H14        19.8837   14.0549   21.5025 H           1 MOL       0.0813
     43 H15        17.0667   11.3735   23.1064 H           1 MOL       0.0801
     44 H16        19.3030    9.1944   18.0918 H           1 MOL       0.0545
     45 H17        18.3947    9.8124   22.1287 H           1 MOL       0.0544
     46 H18        19.2183   13.0802   19.5752 H           1 MOL       0.0532
     47 H19        19.5930   11.5797   17.7796 H           1 MOL       0.0590
     48 H20        17.1562    6.5260   20.4109 H           1 MOL       0.0577
     49 H21        16.7428    7.8716   19.3441 H           1 MOL       0.0577
     50 H22        16.6773    8.0708   21.1140 H           1 MOL       0.0577
@<TRIPOS>BOND
     1     2     1   2
     2     3     2   1
     3     2     6  am
     4     3     4   1
     5     3     9   1
     6    15     3   1
     7     4     5  ar
     8     5     6   1
     9     5     7  ar
    10     6     8   1
    11     9    10  ar
    12     9    14  ar
    13    10    11  ar
    14    11    12  ar
    15    13    12  ar
    16    14    13  ar
    17    15    16  ar
    18    20    15  ar
    19    17    16  ar
    20    18    17  ar
    21    19    18  ar
    22    19    20  ar
    23    23    19   1
    24    21    25  ar
    25    26    21  ar
    26    22    23  ar
    27    22    26  ar
    28    23    24  ar
    29    24    25  ar
    30    26    27   1
    31    27    28   1
    32     4    29   1
    33     7    30   1
    34     7    31   1
    35     8    32   1
    36     8    33   1
    37     8    34   1
    38    10    35   1
    39    11    36   1
    40    12    37   1
    41    13    38   1
    42    14    39   1
    43    16    40   1
    44    17    41   1
    45    18    42   1
    46    20    43   1
    47    21    44   1
    48    22    45   1
    49    24    46   1
    50    25    47   1
    51    28    48   1
    52    28    49   1
    53    28    50   1
@<TRIPOS>SUBSTRUCTURE
     1  MOL      2

