@<TRIPOS>MOLECULE
4djv_ligand_032
    50    53
SMALL
GAST_HUCK
****
This file was generated by PARSER (from files_GN.cpp)

@<TRIPOS>ATOM
      1 O1         17.6783   13.1546   25.5717 O.2         1 MOL      -0.3721
      2 C1         17.8089   13.3369   24.3712 C.2         1 MOL       0.1984
      3 C2         19.0322   13.8636   23.7675 C.3         1 MOL       0.1861
      4 N1         18.5899   13.8641   22.4098 N.pl3       1 MOL      -0.2773
      5 C3         17.3454   13.3982   22.2677 C.cat       1 MOL       0.3179
      6 N2         16.8704   13.0695   23.4771 N.am        1 MOL      -0.2211
      7 N3         16.7269   13.3007   21.0780 N.pl3       1 MOL      -0.2550
      8 C4         15.5639   12.5201   23.7157 C.3         1 MOL       0.0234
      9 C5         19.4040   15.2978   24.0639 C.ar        1 MOL      -0.0137
     10 C6         20.5443   15.8591   23.4248 C.ar        1 MOL      -0.0453
     11 C7         20.9281   17.1926   23.6450 C.ar        1 MOL      -0.0390
     12 C8         20.1684   18.0131   24.4972 C.ar        1 MOL      -0.0398
     13 C9         19.0293   17.4899   25.1320 C.ar        1 MOL      -0.0390
     14 C10        18.6535   16.1492   24.9195 C.ar        1 MOL      -0.0453
     15 C11        20.1870   12.9232   24.0354 C.ar        1 MOL      -0.0130
     16 C12        20.7673   12.8566   25.3279 C.ar        1 MOL      -0.0451
     17 C13        21.9218   12.0909   25.5636 C.ar        1 MOL      -0.0383
     18 C14        22.5198   11.3748   24.5139 C.ar        1 MOL      -0.0321
     19 C15        21.9598   11.3817   23.2118 C.ar        1 MOL       0.0021
     20 C16        20.7829   12.1486   23.0084 C.ar        1 MOL      -0.0377
     21 C17        23.8218    9.2943   19.9743 C.ar        1 MOL      -0.0329
     22 C18        22.5153   11.1748   20.7963 C.ar        1 MOL      -0.0254
     23 C19        22.5786   10.6781   22.1270 C.ar        1 MOL      -0.0214
     24 C20        23.2747    9.4607   22.3440 C.ar        1 MOL      -0.0645
     25 C21        23.8937    8.7807   21.2783 C.ar        1 MOL      -0.0697
     26 C22        23.1366   10.4983   19.7218 C.ar        1 MOL       0.0911
     27 O2         22.9988   10.9137   18.4235 O.3         1 MOL      -0.3214
     28 C23        23.5987   12.1834   18.1103 C.3         1 MOL       0.0593
     29 H1         19.1451   14.1396   21.6643 H           1 MOL       0.3068
     30 H2         17.1857   13.5712   20.2676 H           1 MOL       0.3199
     31 H3         15.8241   12.9505   21.0274 H           1 MOL       0.3199
     32 H4         15.3879   12.3179   24.7717 H           1 MOL       0.0484
     33 H5         15.4471   11.5821   23.1675 H           1 MOL       0.0484
     34 H6         14.7968   13.2186   23.3782 H           1 MOL       0.0484
     35 H7         21.1135   15.2901   22.7903 H           1 MOL       0.0795
     36 H8         21.7583   17.5694   23.1844 H           1 MOL       0.0681
     37 H9         20.4466   18.9831   24.6541 H           1 MOL       0.0806
     38 H10        18.4723   18.0839   25.7500 H           1 MOL       0.0681
     39 H11        17.8128   15.8056   25.3905 H           1 MOL       0.0795
     40 H12        20.3698   13.3937   26.1014 H           1 MOL       0.0796
     41 H13        22.3411   12.0709   26.4973 H           1 MOL       0.0682
     42 H14        23.3878   10.8656   24.7052 H           1 MOL       0.0813
     43 H15        20.3543   12.1466   22.0801 H           1 MOL       0.0801
     44 H16        24.2563    8.7828   19.2010 H           1 MOL       0.0545
     45 H17        22.0132   12.0431   20.5976 H           1 MOL       0.0544
     46 H18        23.3150    9.0369   23.2771 H           1 MOL       0.0532
     47 H19        24.3810    7.8982   21.4524 H           1 MOL       0.0590
     48 H20        23.5631   12.3243   17.0299 H           1 MOL       0.0577
     49 H21        24.6462   12.2203   18.4236 H           1 MOL       0.0577
     50 H22        23.0446   13.0034   18.5804 H           1 MOL       0.0577
@<TRIPOS>BOND
     1     2     1   2
     2     3     2   1
     3     2     6  am
     4     3     4   1
     5     3     9   1
     6    15     3   1
     7     4     5  ar
     8     5     6   1
     9     5     7  ar
    10     6     8   1
    11     9    10  ar
    12     9    14  ar
    13    10    11  ar
    14    11    12  ar
    15    13    12  ar
    16    14    13  ar
    17    15    16  ar
    18    20    15  ar
    19    17    16  ar
    20    18    17  ar
    21    19    18  ar
    22    19    20  ar
    23    23    19   1
    24    21    25  ar
    25    26    21  ar
    26    22    23  ar
    27    22    26  ar
    28    23    24  ar
    29    24    25  ar
    30    26    27   1
    31    27    28   1
    32     4    29   1
    33     7    30   1
    34     7    31   1
    35     8    32   1
    36     8    33   1
    37     8    34   1
    38    10    35   1
    39    11    36   1
    40    12    37   1
    41    13    38   1
    42    14    39   1
    43    16    40   1
    44    17    41   1
    45    18    42   1
    46    20    43   1
    47    21    44   1
    48    22    45   1
    49    24    46   1
    50    25    47   1
    51    28    48   1
    52    28    49   1
    53    28    50   1
@<TRIPOS>SUBSTRUCTURE
     1  MOL      2

