@<TRIPOS>MOLECULE
4djv_ligand_044
    50    53
SMALL
GAST_HUCK
****
This file was generated by PARSER (from files_GN.cpp)

@<TRIPOS>ATOM
      1 O1         15.2095   10.7120   21.1198 O.2         1 MOL      -0.3721
      2 C1         16.0369    9.8679   20.7819 C.2         1 MOL       0.1984
      3 C2         17.3543    9.7402   21.3945 C.3         1 MOL       0.1861
      4 N1         17.7575    8.5288   20.7703 N.pl3       1 MOL      -0.2773
      5 C3         16.8563    8.0770   19.8986 C.cat       1 MOL       0.3179
      6 N2         15.7967    8.9045   19.9060 N.am        1 MOL      -0.2211
      7 N3         17.0380    6.9668   19.1639 N.pl3       1 MOL      -0.2550
      8 C4         14.6190    8.7360   19.1094 C.3         1 MOL       0.0234
      9 C5         18.1978   10.9199   20.9500 C.ar        1 MOL      -0.0137
     10 C6         18.0576   12.1839   21.6025 C.ar        1 MOL      -0.0453
     11 C7         18.9595   13.2294   21.3659 C.ar        1 MOL      -0.0390
     12 C8         19.9868   13.0673   20.4275 C.ar        1 MOL      -0.0398
     13 C9         20.0793   11.8758   19.6876 C.ar        1 MOL      -0.0390
     14 C10        19.1918   10.8204   19.9472 C.ar        1 MOL      -0.0453
     15 C11        17.2873    9.4718   22.8875 C.ar        1 MOL      -0.0130
     16 C12        16.3744    8.5153   23.4146 C.ar        1 MOL      -0.0451
     17 C13        16.2304    8.3292   24.8028 C.ar        1 MOL      -0.0383
     18 C14        17.0000    9.0877   25.7021 C.ar        1 MOL      -0.0321
     19 C15        17.9338   10.0303   25.2152 C.ar        1 MOL       0.0021
     20 C16        18.1045   10.1566   23.8229 C.ar        1 MOL      -0.0377
     21 C17        20.1105   12.7628   27.6299 C.ar        1 MOL      -0.0329
     22 C18        18.4195   12.3053   25.9433 C.ar        1 MOL      -0.0254
     23 C19        18.6300   10.9124   26.0776 C.ar        1 MOL      -0.0214
     24 C20        19.5598   10.4578   27.0434 C.ar        1 MOL      -0.0645
     25 C21        20.2969   11.3786   27.8101 C.ar        1 MOL      -0.0697
     26 C22        19.1638   13.2338   26.6995 C.ar        1 MOL       0.0911
     27 O2         18.9459   14.5804   26.5858 O.3         1 MOL      -0.3214
     28 C23        19.5096   15.1690   25.4034 C.3         1 MOL       0.0593
     29 H1         18.6249    8.1207   20.9069 H           1 MOL       0.3068
     30 H2         17.8553    6.4553   19.2588 H           1 MOL       0.3199
     31 H3         16.3582    6.6811   18.5359 H           1 MOL       0.3199
     32 H4         13.9067    9.5492   19.2575 H           1 MOL       0.0484
     33 H5         14.1277    7.7982   19.3680 H           1 MOL       0.0484
     34 H6         14.8931    8.7194   18.0557 H           1 MOL       0.0484
     35 H7         17.3473   12.2995   22.3395 H           1 MOL       0.0795
     36 H8         18.8867   14.0936   21.9064 H           1 MOL       0.0681
     37 H9         20.6706   13.8082   20.2781 H           1 MOL       0.0806
     38 H10        20.8230   11.7642   18.9920 H           1 MOL       0.0681
     39 H11        19.3090    9.9595   19.4051 H           1 MOL       0.0795
     40 H12        15.7874    7.9547   22.7897 H           1 MOL       0.0796
     41 H13        15.5396    7.6651   25.1525 H           1 MOL       0.0682
     42 H14        16.8470    8.9662   26.7062 H           1 MOL       0.0813
     43 H15        18.8344   10.7930   23.5031 H           1 MOL       0.0801
     44 H16        20.6610   13.4267   28.1783 H           1 MOL       0.0545
     45 H17        17.7217   12.6605   25.2837 H           1 MOL       0.0544
     46 H18        19.7261    9.4596   27.1790 H           1 MOL       0.0532
     47 H19        20.9782   11.0452   28.5000 H           1 MOL       0.0590
     48 H20        19.3872   16.2506   25.4743 H           1 MOL       0.0577
     49 H21        18.9898   14.8256   24.5070 H           1 MOL       0.0577
     50 H22        20.5765   14.9484   25.3146 H           1 MOL       0.0577
@<TRIPOS>BOND
     1     2     1   2
     2     3     2   1
     3     2     6  am
     4     3     4   1
     5     3     9   1
     6    15     3   1
     7     4     5  ar
     8     5     6   1
     9     5     7  ar
    10     6     8   1
    11     9    10  ar
    12     9    14  ar
    13    10    11  ar
    14    11    12  ar
    15    13    12  ar
    16    14    13  ar
    17    15    16  ar
    18    20    15  ar
    19    17    16  ar
    20    18    17  ar
    21    19    18  ar
    22    19    20  ar
    23    23    19   1
    24    21    25  ar
    25    26    21  ar
    26    22    23  ar
    27    22    26  ar
    28    23    24  ar
    29    24    25  ar
    30    26    27   1
    31    27    28   1
    32     4    29   1
    33     7    30   1
    34     7    31   1
    35     8    32   1
    36     8    33   1
    37     8    34   1
    38    10    35   1
    39    11    36   1
    40    12    37   1
    41    13    38   1
    42    14    39   1
    43    16    40   1
    44    17    41   1
    45    18    42   1
    46    20    43   1
    47    21    44   1
    48    22    45   1
    49    24    46   1
    50    25    47   1
    51    28    48   1
    52    28    49   1
    53    28    50   1
@<TRIPOS>SUBSTRUCTURE
     1  MOL      2

