@<TRIPOS>MOLECULE
4djv_ligand_015
    50    53
SMALL
GAST_HUCK
****
This file was generated by PARSER (from files_GN.cpp)

@<TRIPOS>ATOM
      1 O1         17.0748   12.1256   22.9291 O.2         1 MOL      -0.3721
      2 C1         16.8991   11.1561   23.6536 C.2         1 MOL       0.1984
      3 C2         17.7947   10.0031   23.6683 C.3         1 MOL       0.1861
      4 N1         17.1880    9.2870   24.7412 N.pl3       1 MOL      -0.2773
      5 C3         16.0912    9.8914   25.2047 C.cat       1 MOL       0.3179
      6 N2         15.9174   11.0444   24.5359 N.am        1 MOL      -0.2211
      7 N3         15.3243    9.3904   26.1892 N.pl3       1 MOL      -0.2550
      8 C4         14.8509   11.9701   24.7861 C.3         1 MOL       0.0234
      9 C5         17.6268    9.2821   22.3497 C.ar        1 MOL      -0.0137
     10 C6         16.6019    8.3253   22.1187 C.ar        1 MOL      -0.0453
     11 C7         16.4635    7.6725   20.8811 C.ar        1 MOL      -0.0390
     12 C8         17.3385    7.9828   19.8255 C.ar        1 MOL      -0.0398
     13 C9         18.3362    8.9576   20.0086 C.ar        1 MOL      -0.0390
     14 C10        18.4675    9.6072   21.2506 C.ar        1 MOL      -0.0453
     15 C11        19.1961   10.3016   24.1502 C.ar        1 MOL      -0.0130
     16 C12        20.3312    9.6277   23.6243 C.ar        1 MOL      -0.0451
     17 C13        21.6238    9.8676   24.1152 C.ar        1 MOL      -0.0383
     18 C14        21.8209   10.7611   25.1816 C.ar        1 MOL      -0.0321
     19 C15        20.7144   11.4021   25.7800 C.ar        1 MOL       0.0021
     20 C16        19.4233   11.1716   25.2558 C.ar        1 MOL      -0.0377
     21 C17        21.3106   13.7006   29.3011 C.ar        1 MOL      -0.0329
     22 C18        20.7880   13.5908   26.9225 C.ar        1 MOL      -0.0254
     23 C19        20.9000   12.1796   26.9545 C.ar        1 MOL      -0.0214
     24 C20        21.2131   11.5425   28.1775 C.ar        1 MOL      -0.0645
     25 C21        21.4172   12.2988   29.3441 C.ar        1 MOL      -0.0697
     26 C22        20.9865   14.3545   28.0956 C.ar        1 MOL       0.0911
     27 O2         20.9487   15.7240   28.0922 O.3         1 MOL      -0.3214
     28 C23        19.6358   16.2765   27.9014 C.3         1 MOL       0.0593
     29 H1         17.5426    8.4495   25.0902 H           1 MOL       0.3068
     30 H2         15.5597    8.5444   26.6013 H           1 MOL       0.3199
     31 H3         14.5426    9.8783   26.4947 H           1 MOL       0.3199
     32 H4         14.9012   12.8445   24.1317 H           1 MOL       0.0484
     33 H5         14.8976   12.3141   25.8226 H           1 MOL       0.0484
     34 H6         13.8916   11.4748   24.6194 H           1 MOL       0.0484
     35 H7         15.9445    8.0730   22.8594 H           1 MOL       0.0795
     36 H8         15.7168    6.9871   20.7421 H           1 MOL       0.0681
     37 H9         17.2394    7.5003   18.9255 H           1 MOL       0.0806
     38 H10        18.9600    9.1963   19.2271 H           1 MOL       0.0681
     39 H11        19.1946   10.3208   21.3501 H           1 MOL       0.0795
     40 H12        20.2250    8.9383   22.8792 H           1 MOL       0.0796
     41 H13        22.4283    9.3755   23.7140 H           1 MOL       0.0682
     42 H14        22.7682   10.9285   25.5324 H           1 MOL       0.0813
     43 H15        18.6241   11.6248   25.7172 H           1 MOL       0.0801
     44 H16        21.4803   14.2448   30.1505 H           1 MOL       0.0545
     45 H17        20.5809   14.0707   26.0418 H           1 MOL       0.0544
     46 H18        21.2978   10.5238   28.2231 H           1 MOL       0.0532
     47 H19        21.6458   11.8300   30.2200 H           1 MOL       0.0590
     48 H20        19.7126   17.3625   27.9743 H           1 MOL       0.0577
     49 H21        18.9421   15.9315   28.6734 H           1 MOL       0.0577
     50 H22        19.2396   16.0295   26.9147 H           1 MOL       0.0577
@<TRIPOS>BOND
     1     2     1   2
     2     3     2   1
     3     2     6  am
     4     3     4   1
     5     3     9   1
     6    15     3   1
     7     4     5  ar
     8     5     6   1
     9     5     7  ar
    10     6     8   1
    11     9    10  ar
    12     9    14  ar
    13    10    11  ar
    14    11    12  ar
    15    13    12  ar
    16    14    13  ar
    17    15    16  ar
    18    20    15  ar
    19    17    16  ar
    20    18    17  ar
    21    19    18  ar
    22    19    20  ar
    23    23    19   1
    24    21    25  ar
    25    26    21  ar
    26    22    23  ar
    27    22    26  ar
    28    23    24  ar
    29    24    25  ar
    30    26    27   1
    31    27    28   1
    32     4    29   1
    33     7    30   1
    34     7    31   1
    35     8    32   1
    36     8    33   1
    37     8    34   1
    38    10    35   1
    39    11    36   1
    40    12    37   1
    41    13    38   1
    42    14    39   1
    43    16    40   1
    44    17    41   1
    45    18    42   1
    46    20    43   1
    47    21    44   1
    48    22    45   1
    49    24    46   1
    50    25    47   1
    51    28    48   1
    52    28    49   1
    53    28    50   1
@<TRIPOS>SUBSTRUCTURE
     1  MOL      2

