@<TRIPOS>MOLECULE
4djv_ligand_025
    50    53
SMALL
GAST_HUCK
****
This file was generated by PARSER (from files_GN.cpp)

@<TRIPOS>ATOM
      1 O1         20.8755   12.9509   23.1672 O.2         1 MOL      -0.3721
      2 C1         21.6586   12.1117   23.5932 C.2         1 MOL       0.1984
      3 C2         23.1247   12.2361   23.5232 C.3         1 MOL       0.1861
      4 N1         23.4120   10.9406   24.0694 N.pl3       1 MOL      -0.2773
      5 C3         22.3300   10.2481   24.4283 C.cat       1 MOL       0.3179
      6 N2         21.2429   10.9761   24.1300 N.am        1 MOL      -0.2211
      7 N3         22.3498    9.0235   24.9875 N.pl3       1 MOL      -0.2550
      8 C4         19.8875   10.5662   24.3672 C.3         1 MOL       0.0234
      9 C5         23.5686   12.4020   22.0874 C.ar        1 MOL      -0.0137
     10 C6         24.3136   11.4082   21.3913 C.ar        1 MOL      -0.0453
     11 C7         24.5867   11.5282   20.0151 C.ar        1 MOL      -0.0390
     12 C8         24.1322   12.6486   19.3014 C.ar        1 MOL      -0.0398
     13 C9         23.4343   13.6650   19.9710 C.ar        1 MOL      -0.0390
     14 C10        23.1791   13.5502   21.3524 C.ar        1 MOL      -0.0453
     15 C11        23.7375   13.2767   24.4420 C.ar        1 MOL      -0.0130
     16 C12        25.0299   13.0830   24.9969 C.ar        1 MOL      -0.0451
     17 C13        25.5372   13.9439   25.9807 C.ar        1 MOL      -0.0383
     18 C14        24.7815   15.0462   26.4160 C.ar        1 MOL      -0.0321
     19 C15        23.5332   15.3584   25.8226 C.ar        1 MOL       0.0021
     20 C16        23.0579   14.4580   24.8260 C.ar        1 MOL      -0.0377
     21 C17        21.3138   18.9480   26.6327 C.ar        1 MOL      -0.0329
     22 C18        21.3723   16.5923   26.0471 C.ar        1 MOL      -0.0254
     23 C19        22.7821   16.5424   26.1754 C.ar        1 MOL      -0.0214
     24 C20        23.4267   17.7377   26.6087 C.ar        1 MOL      -0.0645
     25 C21        22.7002   18.9134   26.8589 C.ar        1 MOL      -0.0697
     26 C22        20.6399   17.7945   26.1995 C.ar        1 MOL       0.0911
     27 O2         19.2858   17.8921   26.0065 O.3         1 MOL      -0.3214
     28 C23        18.7686   17.4647   24.7333 C.3         1 MOL       0.0593
     29 H1         24.3147   10.5946   24.1587 H           1 MOL       0.3068
     30 H2         23.1873    8.5845   25.2104 H           1 MOL       0.3199
     31 H3         21.5138    8.5894   25.2145 H           1 MOL       0.3199
     32 H4         19.1655   11.3190   24.0438 H           1 MOL       0.0484
     33 H5         19.7372   10.3950   25.4350 H           1 MOL       0.0484
     34 H6         19.6746    9.6422   23.8257 H           1 MOL       0.0484
     35 H7         24.6459   10.5704   21.8706 H           1 MOL       0.0795
     36 H8         25.1002   10.7899   19.5272 H           1 MOL       0.0681
     37 H9         24.3037   12.7235   18.2950 H           1 MOL       0.0806
     38 H10        23.0933   14.4764   19.4535 H           1 MOL       0.0681
     39 H11        22.6635   14.3056   21.8085 H           1 MOL       0.0795
     40 H12        25.5919   12.2755   24.7243 H           1 MOL       0.0796
     41 H13        26.4489   13.7490   26.4043 H           1 MOL       0.0682
     42 H14        25.1676   15.6164   27.1728 H           1 MOL       0.0813
     43 H15        22.1873   14.6767   24.3490 H           1 MOL       0.0801
     44 H16        20.7907   19.8143   26.7884 H           1 MOL       0.0545
     45 H17        20.8492   15.7466   25.8216 H           1 MOL       0.0544
     46 H18        24.4425   17.7800   26.7168 H           1 MOL       0.0532
     47 H19        23.1791   19.7552   27.1854 H           1 MOL       0.0590
     48 H20        17.7511   17.8456   24.6396 H           1 MOL       0.0577
     49 H21        18.7313   16.3771   24.6871 H           1 MOL       0.0577
     50 H22        19.3549   17.8481   23.8930 H           1 MOL       0.0577
@<TRIPOS>BOND
     1     2     1   2
     2     3     2   1
     3     2     6  am
     4     3     4   1
     5     3     9   1
     6    15     3   1
     7     4     5  ar
     8     5     6   1
     9     5     7  ar
    10     6     8   1
    11     9    10  ar
    12     9    14  ar
    13    10    11  ar
    14    11    12  ar
    15    13    12  ar
    16    14    13  ar
    17    15    16  ar
    18    20    15  ar
    19    17    16  ar
    20    18    17  ar
    21    19    18  ar
    22    19    20  ar
    23    23    19   1
    24    21    25  ar
    25    26    21  ar
    26    22    23  ar
    27    22    26  ar
    28    23    24  ar
    29    24    25  ar
    30    26    27   1
    31    27    28   1
    32     4    29   1
    33     7    30   1
    34     7    31   1
    35     8    32   1
    36     8    33   1
    37     8    34   1
    38    10    35   1
    39    11    36   1
    40    12    37   1
    41    13    38   1
    42    14    39   1
    43    16    40   1
    44    17    41   1
    45    18    42   1
    46    20    43   1
    47    21    44   1
    48    22    45   1
    49    24    46   1
    50    25    47   1
    51    28    48   1
    52    28    49   1
    53    28    50   1
@<TRIPOS>SUBSTRUCTURE
     1  MOL      2

