@<TRIPOS>MOLECULE
4djv_ligand_011
    50    53
SMALL
GAST_HUCK
****
This file was generated by PARSER (from files_GN.cpp)

@<TRIPOS>ATOM
      1 O1         18.1995   11.0796   26.7251 O.2         1 MOL      -0.3721
      2 C1         19.0073   10.6835   25.8937 C.2         1 MOL       0.1984
      3 C2         18.7743   10.7814   24.4557 C.3         1 MOL       0.1861
      4 N1         20.0154   10.2312   24.0158 N.pl3       1 MOL      -0.2773
      5 C3         20.8040    9.8693   25.0318 C.cat       1 MOL       0.3179
      6 N2         20.1935   10.1774   26.1840 N.am        1 MOL      -0.2211
      7 N3         22.0000    9.2749   24.8637 N.pl3       1 MOL      -0.2550
      8 C4         20.7723   10.0045   27.4792 C.3         1 MOL       0.0234
      9 C5         17.7097    9.8848   23.8651 C.ar        1 MOL      -0.0137
     10 C6         16.8939    9.0050   24.6310 C.ar        1 MOL      -0.0453
     11 C7         15.9227    8.1825   24.0179 C.ar        1 MOL      -0.0390
     12 C8         15.7454    8.2280   22.6244 C.ar        1 MOL      -0.0398
     13 C9         16.5332    9.0924   21.8510 C.ar        1 MOL      -0.0390
     14 C10        17.5009    9.9004   22.4634 C.ar        1 MOL      -0.0453
     15 C11        18.6059   12.2416   24.0978 C.ar        1 MOL      -0.0130
     16 C12        19.7099   13.0694   23.7618 C.ar        1 MOL      -0.0451
     17 C13        19.5421   14.4375   23.4770 C.ar        1 MOL      -0.0383
     18 C14        18.2635   15.0141   23.5244 C.ar        1 MOL      -0.0321
     19 C15        17.1460   14.2211   23.8580 C.ar        1 MOL       0.0021
     20 C16        17.3301   12.8557   24.1589 C.ar        1 MOL      -0.0377
     21 C17        13.2686   15.9238   23.9848 C.ar        1 MOL      -0.0329
     22 C18        15.4094   15.4679   25.0573 C.ar        1 MOL      -0.0254
     23 C19        15.8539   14.7987   23.8955 C.ar        1 MOL      -0.0214
     24 C20        14.9967   14.7032   22.7754 C.ar        1 MOL      -0.0645
     25 C21        13.7105   15.2700   22.8192 C.ar        1 MOL      -0.0697
     26 C22        14.1113   16.0125   25.1123 C.ar        1 MOL       0.0911
     27 O2         13.6891   16.6704   26.2336 O.3         1 MOL      -0.3214
     28 C23        13.1198   15.7960   27.2233 C.3         1 MOL       0.0593
     29 H1         20.2468   10.1082   23.0829 H           1 MOL       0.3068
     30 H2         22.3285    9.0816   23.9683 H           1 MOL       0.3199
     31 H3         22.5329    9.0167   25.6329 H           1 MOL       0.3199
     32 H4         20.0872   10.2887   28.2867 H           1 MOL       0.0484
     33 H5         21.6668   10.6278   27.5758 H           1 MOL       0.0484
     34 H6         21.0601    8.9595   27.6276 H           1 MOL       0.0484
     35 H7         17.0020    8.9327   25.6414 H           1 MOL       0.0795
     36 H8         15.3522    7.5555   24.5853 H           1 MOL       0.0681
     37 H9         15.0412    7.6402   22.1835 H           1 MOL       0.0806
     38 H10        16.4094    9.1214   20.8370 H           1 MOL       0.0681
     39 H11        18.0635   10.5141   21.8710 H           1 MOL       0.0795
     40 H12        20.6612   12.6913   23.7413 H           1 MOL       0.0796
     41 H13        20.3484   15.0162   23.2430 H           1 MOL       0.0682
     42 H14        18.1533   16.0084   23.3180 H           1 MOL       0.0813
     43 H15        16.5139   12.3002   24.4302 H           1 MOL       0.0801
     44 H16        12.3311   16.3311   24.0124 H           1 MOL       0.0545
     45 H17        16.0228   15.5533   25.8688 H           1 MOL       0.0544
     46 H18        15.3064   14.2303   21.9209 H           1 MOL       0.0532
     47 H19        13.0947   15.2043   22.0066 H           1 MOL       0.0590
     48 H20        12.8176   16.4014   28.0778 H           1 MOL       0.0577
     49 H21        13.8481   15.0579   27.5702 H           1 MOL       0.0577
     50 H22        12.2337   15.2828   26.8400 H           1 MOL       0.0577
@<TRIPOS>BOND
     1     2     1   2
     2     3     2   1
     3     2     6  am
     4     3     4   1
     5     3     9   1
     6    15     3   1
     7     4     5  ar
     8     5     6   1
     9     5     7  ar
    10     6     8   1
    11     9    10  ar
    12     9    14  ar
    13    10    11  ar
    14    11    12  ar
    15    13    12  ar
    16    14    13  ar
    17    15    16  ar
    18    20    15  ar
    19    17    16  ar
    20    18    17  ar
    21    19    18  ar
    22    19    20  ar
    23    23    19   1
    24    21    25  ar
    25    26    21  ar
    26    22    23  ar
    27    22    26  ar
    28    23    24  ar
    29    24    25  ar
    30    26    27   1
    31    27    28   1
    32     4    29   1
    33     7    30   1
    34     7    31   1
    35     8    32   1
    36     8    33   1
    37     8    34   1
    38    10    35   1
    39    11    36   1
    40    12    37   1
    41    13    38   1
    42    14    39   1
    43    16    40   1
    44    17    41   1
    45    18    42   1
    46    20    43   1
    47    21    44   1
    48    22    45   1
    49    24    46   1
    50    25    47   1
    51    28    48   1
    52    28    49   1
    53    28    50   1
@<TRIPOS>SUBSTRUCTURE
     1  MOL      2

