@<TRIPOS>MOLECULE
4djv_ligand_004
    50    53
SMALL
GAST_HUCK
****
This file was generated by PARSER (from files_GN.cpp)

@<TRIPOS>ATOM
      1 O1         18.2924   10.9980   26.5684 O.2         1 MOL      -0.3721
      2 C1         19.1377   10.6058   25.7553 C.2         1 MOL       0.1984
      3 C2         18.9218   10.6315   24.3002 C.3         1 MOL       0.1861
      4 N1         20.1012    9.8920   23.9549 N.pl3       1 MOL      -0.2773
      5 C3         20.8756    9.5932   25.0014 C.cat       1 MOL       0.3179
      6 N2         20.2777   10.0585   26.1149 N.am        1 MOL      -0.2211
      7 N3         22.0225    8.9042   24.8975 N.pl3       1 MOL      -0.2550
      8 C4         20.8032    9.9403   27.4460 C.3         1 MOL       0.0234
      9 C5         17.7586    9.8341   23.7584 C.ar        1 MOL      -0.0137
     10 C6         17.5037    9.7902   22.3647 C.ar        1 MOL      -0.0453
     11 C7         16.4818    9.0041   21.8098 C.ar        1 MOL      -0.0390
     12 C8         15.6874    8.2082   22.6462 C.ar        1 MOL      -0.0398
     13 C9         15.9196    8.2097   24.0345 C.ar        1 MOL      -0.0390
     14 C10        16.9347    9.0092   24.5797 C.ar        1 MOL      -0.0453
     15 C11        18.9937   12.0552   23.7606 C.ar        1 MOL      -0.0130
     16 C12        19.6837   12.3485   22.5460 C.ar        1 MOL      -0.0451
     17 C13        19.7809   13.6564   22.0502 C.ar        1 MOL      -0.0383
     18 C14        19.2226   14.7258   22.7690 C.ar        1 MOL      -0.0321
     19 C15        18.5234   14.4874   23.9628 C.ar        1 MOL       0.0021
     20 C16        18.3883   13.1583   24.4231 C.ar        1 MOL      -0.0377
     21 C17        17.0893   17.8282   26.1470 C.ar        1 MOL      -0.0329
     22 C18        16.8694   16.2726   24.2819 C.ar        1 MOL      -0.0254
     23 C19        18.0217   15.5776   24.7102 C.ar        1 MOL      -0.0214
     24 C20        18.7000   16.0208   25.8694 C.ar        1 MOL      -0.0645
     25 C21        18.2386   17.1445   26.5804 C.ar        1 MOL      -0.0697
     26 C22        16.3991   17.3993   24.9967 C.ar        1 MOL       0.0911
     27 O2         15.2305   18.0238   24.6471 O.3         1 MOL      -0.3214
     28 C23        15.3577   18.9288   23.5387 C.3         1 MOL       0.0593
     29 H1         20.3165    9.6251   23.0429 H           1 MOL       0.3068
     30 H2         22.2861    8.5229   24.0449 H           1 MOL       0.3199
     31 H3         22.5553    8.7180   25.6845 H           1 MOL       0.3199
     32 H4         20.1049   10.3031   28.2020 H           1 MOL       0.0484
     33 H5         21.7148   10.5315   27.5199 H           1 MOL       0.0484
     34 H6         21.0321    8.8997   27.6673 H           1 MOL       0.0484
     35 H7         18.0794   10.3237   21.7164 H           1 MOL       0.0795
     36 H8         16.3319    8.9947   20.7994 H           1 MOL       0.0681
     37 H9         14.9477    7.6224   22.2508 H           1 MOL       0.0806
     38 H10        15.3472    7.6085   24.6397 H           1 MOL       0.0681
     39 H11        17.0861    8.9515   25.5842 H           1 MOL       0.0795
     40 H12        20.1297   11.5984   22.0092 H           1 MOL       0.0796
     41 H13        20.2699   13.8367   21.1720 H           1 MOL       0.0682
     42 H14        19.3369   15.6752   22.4184 H           1 MOL       0.0813
     43 H15        17.8535   13.0111   25.2801 H           1 MOL       0.0801
     44 H16        16.7489   18.6355   26.6762 H           1 MOL       0.0545
     45 H17        16.3555   15.9604   23.4532 H           1 MOL       0.0544
     46 H18        19.5434   15.5426   26.1953 H           1 MOL       0.0532
     47 H19        18.7371   17.4635   27.4161 H           1 MOL       0.0590
     48 H20        14.4059   19.4416   23.4095 H           1 MOL       0.0577
     49 H21        15.5764   18.3860   22.6183 H           1 MOL       0.0577
     50 H22        16.1304   19.6815   23.7130 H           1 MOL       0.0577
@<TRIPOS>BOND
     1     2     1   2
     2     3     2   1
     3     2     6  am
     4     3     4   1
     5     3     9   1
     6    15     3   1
     7     4     5  ar
     8     5     6   1
     9     5     7  ar
    10     6     8   1
    11     9    10  ar
    12     9    14  ar
    13    10    11  ar
    14    11    12  ar
    15    13    12  ar
    16    14    13  ar
    17    15    16  ar
    18    20    15  ar
    19    17    16  ar
    20    18    17  ar
    21    19    18  ar
    22    19    20  ar
    23    23    19   1
    24    21    25  ar
    25    26    21  ar
    26    22    23  ar
    27    22    26  ar
    28    23    24  ar
    29    24    25  ar
    30    26    27   1
    31    27    28   1
    32     4    29   1
    33     7    30   1
    34     7    31   1
    35     8    32   1
    36     8    33   1
    37     8    34   1
    38    10    35   1
    39    11    36   1
    40    12    37   1
    41    13    38   1
    42    14    39   1
    43    16    40   1
    44    17    41   1
    45    18    42   1
    46    20    43   1
    47    21    44   1
    48    22    45   1
    49    24    46   1
    50    25    47   1
    51    28    48   1
    52    28    49   1
    53    28    50   1
@<TRIPOS>SUBSTRUCTURE
     1  MOL      2

