@<TRIPOS>MOLECULE
4djv_ligand_021
    50    53
SMALL
GAST_HUCK
****
This file was generated by PARSER (from files_GN.cpp)

@<TRIPOS>ATOM
      1 O1         21.2314   14.9842   26.2780 O.2         1 MOL      -0.3721
      2 C1         21.5952   13.8603   26.6110 C.2         1 MOL       0.1984
      3 C2         22.0316   12.8323   25.6646 C.3         1 MOL       0.1861
      4 N1         22.3808   11.8365   26.6228 N.pl3       1 MOL      -0.2773
      5 C3         22.1490   12.2242   27.8811 C.cat       1 MOL       0.3179
      6 N2         21.6573   13.4702   27.8728 N.am        1 MOL      -0.2211
      7 N3         22.3994   11.4387   28.9395 N.pl3       1 MOL      -0.2550
      8 C4         21.2873   14.2151   29.0426 C.3         1 MOL       0.0234
      9 C5         20.8746   12.4535   24.7651 C.ar        1 MOL      -0.0137
     10 C6         20.3742   13.3915   23.8235 C.ar        1 MOL      -0.0453
     11 C7         19.3231   13.0623   22.9497 C.ar        1 MOL      -0.0390
     12 C8         18.7643   11.7740   22.9784 C.ar        1 MOL      -0.0398
     13 C9         19.2602   10.8178   23.8817 C.ar        1 MOL      -0.0390
     14 C10        20.3010   11.1550   24.7662 C.ar        1 MOL      -0.0453
     15 C11        23.2853   13.1075   24.8636 C.ar        1 MOL      -0.0130
     16 C12        23.6852   12.1991   23.8459 C.ar        1 MOL      -0.0451
     17 C13        24.8298   12.4245   23.0653 C.ar        1 MOL      -0.0383
     18 C14        25.6371   13.5468   23.3070 C.ar        1 MOL      -0.0321
     19 C15        25.2980   14.4473   24.3391 C.ar        1 MOL       0.0021
     20 C16        24.1343   14.2206   25.1087 C.ar        1 MOL      -0.0377
     21 C17        27.8284   17.7288   25.2132 C.ar        1 MOL      -0.0329
     22 C18        27.2358   15.3829   25.4927 C.ar        1 MOL      -0.0254
     23 C19        26.1404   15.5442   24.6174 C.ar        1 MOL      -0.0214
     24 C20        25.9049   16.8047   24.0310 C.ar        1 MOL      -0.0645
     25 C21        26.7540   17.8898   24.3215 C.ar        1 MOL      -0.0697
     26 C22        28.0637   16.4778   25.8198 C.ar        1 MOL       0.0911
     27 O2         29.1296   16.3400   26.6676 O.3         1 MOL      -0.3214
     28 C23        28.7504   16.1191   28.0373 C.3         1 MOL       0.0593
     29 H1         22.7383   10.9598   26.4123 H           1 MOL       0.3068
     30 H2         22.7860   10.5630   28.7931 H           1 MOL       0.3199
     31 H3         22.2116   11.7504   29.8394 H           1 MOL       0.3199
     32 H4         20.9191   15.2144   28.7943 H           1 MOL       0.0484
     33 H5         22.1477   14.3244   29.7024 H           1 MOL       0.0484
     34 H6         20.4958   13.6908   29.5799 H           1 MOL       0.0484
     35 H7         20.7773   14.3278   23.7626 H           1 MOL       0.0795
     36 H8         18.9664   13.7651   22.2957 H           1 MOL       0.0681
     37 H9         18.0011   11.5335   22.3431 H           1 MOL       0.0806
     38 H10        18.8654    9.8732   23.8908 H           1 MOL       0.0681
     39 H11        20.6475   10.4272   25.3941 H           1 MOL       0.0795
     40 H12        23.1335   11.3617   23.6494 H           1 MOL       0.0796
     41 H13        25.0783   11.7681   22.3193 H           1 MOL       0.0682
     42 H14        26.4659   13.7000   22.7278 H           1 MOL       0.0813
     43 H15        23.9219   14.8676   25.8701 H           1 MOL       0.0801
     44 H16        28.4372   18.5246   25.4237 H           1 MOL       0.0545
     45 H17        27.4170   14.4662   25.9139 H           1 MOL       0.0544
     46 H18        25.1193   16.9373   23.3861 H           1 MOL       0.0532
     47 H19        26.5963   18.7955   23.8810 H           1 MOL       0.0590
     48 H20        29.6544   16.1091   28.6446 H           1 MOL       0.0577
     49 H21        28.2596   15.1511   28.1657 H           1 MOL       0.0577
     50 H22        28.1028   16.9182   28.4046 H           1 MOL       0.0577
@<TRIPOS>BOND
     1     2     1   2
     2     3     2   1
     3     2     6  am
     4     3     4   1
     5     3     9   1
     6    15     3   1
     7     4     5  ar
     8     5     6   1
     9     5     7  ar
    10     6     8   1
    11     9    10  ar
    12     9    14  ar
    13    10    11  ar
    14    11    12  ar
    15    13    12  ar
    16    14    13  ar
    17    15    16  ar
    18    20    15  ar
    19    17    16  ar
    20    18    17  ar
    21    19    18  ar
    22    19    20  ar
    23    23    19   1
    24    21    25  ar
    25    26    21  ar
    26    22    23  ar
    27    22    26  ar
    28    23    24  ar
    29    24    25  ar
    30    26    27   1
    31    27    28   1
    32     4    29   1
    33     7    30   1
    34     7    31   1
    35     8    32   1
    36     8    33   1
    37     8    34   1
    38    10    35   1
    39    11    36   1
    40    12    37   1
    41    13    38   1
    42    14    39   1
    43    16    40   1
    44    17    41   1
    45    18    42   1
    46    20    43   1
    47    21    44   1
    48    22    45   1
    49    24    46   1
    50    25    47   1
    51    28    48   1
    52    28    49   1
    53    28    50   1
@<TRIPOS>SUBSTRUCTURE
     1  MOL      2

