@<TRIPOS>MOLECULE
4djv_ligand_037
    50    53
SMALL
GAST_HUCK
****
This file was generated by PARSER (from files_GN.cpp)

@<TRIPOS>ATOM
      1 O1         17.5627   12.0490   19.9717 O.2         1 MOL      -0.3721
      2 C1         16.9604   11.9116   21.0326 C.2         1 MOL       0.1984
      3 C2         17.1942   10.8130   21.9750 C.3         1 MOL       0.1861
      4 N1         16.2015   11.2009   22.9286 N.pl3       1 MOL      -0.2773
      5 C3         15.5379   12.3073   22.5984 C.cat       1 MOL       0.3179
      6 N2         16.0114   12.7427   21.4215 N.am        1 MOL      -0.2211
      7 N3         14.5636   12.8425   23.3517 N.pl3       1 MOL      -0.2550
      8 C4         15.5312   13.9107   20.7485 C.3         1 MOL       0.0234
      9 C5         16.8511    9.4657   21.3622 C.ar        1 MOL      -0.0137
     10 C6         15.7613    8.6676   21.8173 C.ar        1 MOL      -0.0453
     11 C7         15.4285    7.4372   21.2153 C.ar        1 MOL      -0.0390
     12 C8         16.2032    6.9545   20.1525 C.ar        1 MOL      -0.0398
     13 C9         17.2781    7.7097   19.6724 C.ar        1 MOL      -0.0390
     14 C10        17.5756    8.9545   20.2549 C.ar        1 MOL      -0.0453
     15 C11        18.5824   10.8615   22.6119 C.ar        1 MOL      -0.0130
     16 C12        19.7697   10.8928   21.8332 C.ar        1 MOL      -0.0451
     17 C13        21.0496   10.8792   22.4133 C.ar        1 MOL      -0.0383
     18 C14        21.1873   10.9197   23.8091 C.ar        1 MOL      -0.0321
     19 C15        20.0414   10.9760   24.6318 C.ar        1 MOL       0.0021
     20 C16        18.7677   10.9103   24.0218 C.ar        1 MOL      -0.0377
     21 C17        20.4479   11.5631   28.8228 C.ar        1 MOL      -0.0329
     22 C18        19.5162   12.2323   26.6771 C.ar        1 MOL      -0.0254
     23 C19        20.1666   11.1528   26.0319 C.ar        1 MOL      -0.0214
     24 C20        20.9622   10.2815   26.8127 C.ar        1 MOL      -0.0645
     25 C21        21.1068   10.4894   28.1977 C.ar        1 MOL      -0.0697
     26 C22        19.6323   12.4279   28.0692 C.ar        1 MOL       0.0911
     27 O2         19.0171   13.4874   28.6801 O.3         1 MOL      -0.3214
     28 C23        17.6250   13.2588   28.9574 C.3         1 MOL       0.0593
     29 H1         16.0167   10.6954   23.7365 H           1 MOL       0.3068
     30 H2         14.3170   12.4262   24.1947 H           1 MOL       0.3199
     31 H3         14.1204   13.6566   23.0707 H           1 MOL       0.3199
     32 H4         16.0733   14.1124   19.8240 H           1 MOL       0.0484
     33 H5         15.6408   14.7749   21.4014 H           1 MOL       0.0484
     34 H6         14.4785   13.7836   20.5010 H           1 MOL       0.0484
     35 H7         15.1727    8.9674   22.5893 H           1 MOL       0.0795
     36 H8         14.6288    6.8989   21.5509 H           1 MOL       0.0681
     37 H9         15.9734    6.0623   19.7221 H           1 MOL       0.0806
     38 H10        17.8364    7.3580   18.8882 H           1 MOL       0.0681
     39 H11        18.3273    9.4982   19.8315 H           1 MOL       0.0795
     40 H12        19.7256   10.9442   20.8161 H           1 MOL       0.0796
     41 H13        21.8854   10.8629   21.8242 H           1 MOL       0.0682
     42 H14        22.1246   10.9579   24.2159 H           1 MOL       0.0813
     43 H15        17.9561   10.9030   24.6352 H           1 MOL       0.0801
     44 H16        20.5687   11.7185   29.8276 H           1 MOL       0.0545
     45 H17        18.9598   12.8962   26.1339 H           1 MOL       0.0544
     46 H18        21.4378    9.4846   26.3804 H           1 MOL       0.0532
     47 H19        21.6962    9.8592   28.7468 H           1 MOL       0.0590
     48 H20        17.2299   14.1415   29.4661 H           1 MOL       0.0577
     49 H21        17.4808   12.3962   29.6128 H           1 MOL       0.0577
     50 H22        17.0544   13.1164   28.0364 H           1 MOL       0.0577
@<TRIPOS>BOND
     1     2     1   2
     2     3     2   1
     3     2     6  am
     4     3     4   1
     5     3     9   1
     6    15     3   1
     7     4     5  ar
     8     5     6   1
     9     5     7  ar
    10     6     8   1
    11     9    10  ar
    12     9    14  ar
    13    10    11  ar
    14    11    12  ar
    15    13    12  ar
    16    14    13  ar
    17    15    16  ar
    18    20    15  ar
    19    17    16  ar
    20    18    17  ar
    21    19    18  ar
    22    19    20  ar
    23    23    19   1
    24    21    25  ar
    25    26    21  ar
    26    22    23  ar
    27    22    26  ar
    28    23    24  ar
    29    24    25  ar
    30    26    27   1
    31    27    28   1
    32     4    29   1
    33     7    30   1
    34     7    31   1
    35     8    32   1
    36     8    33   1
    37     8    34   1
    38    10    35   1
    39    11    36   1
    40    12    37   1
    41    13    38   1
    42    14    39   1
    43    16    40   1
    44    17    41   1
    45    18    42   1
    46    20    43   1
    47    21    44   1
    48    22    45   1
    49    24    46   1
    50    25    47   1
    51    28    48   1
    52    28    49   1
    53    28    50   1
@<TRIPOS>SUBSTRUCTURE
     1  MOL      2

