@<TRIPOS>MOLECULE
4djv_ligand_047
    50    53
SMALL
GAST_HUCK
****
This file was generated by PARSER (from files_GN.cpp)

@<TRIPOS>ATOM
      1 O1         23.0988   11.1713   20.5029 O.2         1 MOL      -0.3721
      2 C1         22.0996   11.8129   20.8015 C.2         1 MOL       0.1984
      3 C2         21.8968   12.4259   22.1158 C.3         1 MOL       0.1861
      4 N1         20.5825   12.9349   21.8862 N.pl3       1 MOL      -0.2773
      5 C3         20.1182   12.6559   20.6661 C.cat       1 MOL       0.3179
      6 N2         21.0655   11.9854   19.9937 N.am        1 MOL      -0.2211
      7 N3         18.8819   12.9810   20.2503 N.pl3       1 MOL      -0.2550
      8 C4         20.9339   11.5370   18.6429 C.3         1 MOL       0.0234
      9 C5         21.9245   11.3477   23.1703 C.ar        1 MOL      -0.0137
     10 C6         23.1469   10.9517   23.7723 C.ar        1 MOL      -0.0453
     11 C7         23.1936    9.9206   24.7262 C.ar        1 MOL      -0.0390
     12 C8         22.0172    9.2430   25.0883 C.ar        1 MOL      -0.0398
     13 C9         20.7978    9.5993   24.4912 C.ar        1 MOL      -0.0390
     14 C10        20.7528   10.6320   23.5410 C.ar        1 MOL      -0.0453
     15 C11        22.7775   13.6117   22.4465 C.ar        1 MOL      -0.0130
     16 C12        23.9917   13.8877   21.7628 C.ar        1 MOL      -0.0451
     17 C13        24.7750   14.9990   22.1120 C.ar        1 MOL      -0.0383
     18 C14        24.3544   15.8629   23.1360 C.ar        1 MOL      -0.0321
     19 C15        23.1727   15.6234   23.8848 C.ar        1 MOL       0.0021
     20 C16        22.4155   14.4799   23.5151 C.ar        1 MOL      -0.0377
     21 C17        22.0257   18.2986   27.0681 C.ar        1 MOL      -0.0329
     22 C18        21.4215   16.6511   25.3751 C.ar        1 MOL      -0.0254
     23 C19        22.7754   16.5024   24.9641 C.ar        1 MOL      -0.0214
     24 C20        23.7373   17.2743   25.6709 C.ar        1 MOL      -0.0645
     25 C21        23.3729   18.1663   26.6960 C.ar        1 MOL      -0.0697
     26 C22        21.0411   17.5145   26.4325 C.ar        1 MOL       0.0911
     27 O2         19.7071   17.6349   26.7388 O.3         1 MOL      -0.3214
     28 C23        19.3371   17.4537   28.1192 C.3         1 MOL       0.0593
     29 H1         20.0503   13.3750   22.5657 H           1 MOL       0.3068
     30 H2         18.2757   13.4518   20.8456 H           1 MOL       0.3199
     31 H3         18.5852   12.7306   19.3613 H           1 MOL       0.3199
     32 H4         21.8353   11.0286   18.2955 H           1 MOL       0.0484
     33 H5         20.7545   12.3945   17.9922 H           1 MOL       0.0484
     34 H6         20.0951   10.8440   18.5611 H           1 MOL       0.0484
     35 H7         24.0213   11.4129   23.5183 H           1 MOL       0.0795
     36 H8         24.0828    9.6525   25.1496 H           1 MOL       0.0681
     37 H9         22.0495    8.4880   25.7779 H           1 MOL       0.0806
     38 H10        19.9423    9.0948   24.7358 H           1 MOL       0.0681
     39 H11        19.8520   10.8406   23.1080 H           1 MOL       0.0795
     40 H12        24.3282   13.2873   21.0049 H           1 MOL       0.0796
     41 H13        25.6495   15.1853   21.6128 H           1 MOL       0.0682
     42 H14        24.9280   16.6818   23.3176 H           1 MOL       0.0813
     43 H15        21.5707   14.2590   24.0419 H           1 MOL       0.0801
     44 H16        21.7723   18.9672   27.7987 H           1 MOL       0.0545
     45 H17        20.6818   16.1437   24.8903 H           1 MOL       0.0544
     46 H18        24.7291   17.1950   25.4557 H           1 MOL       0.0532
     47 H19        24.0898   18.7224   27.1686 H           1 MOL       0.0590
     48 H20        18.2495   17.4943   28.1925 H           1 MOL       0.0577
     49 H21        19.7446   18.2526   28.7421 H           1 MOL       0.0577
     50 H22        19.6665   16.4875   28.5088 H           1 MOL       0.0577
@<TRIPOS>BOND
     1     2     1   2
     2     3     2   1
     3     2     6  am
     4     3     4   1
     5     3     9   1
     6    15     3   1
     7     4     5  ar
     8     5     6   1
     9     5     7  ar
    10     6     8   1
    11     9    10  ar
    12     9    14  ar
    13    10    11  ar
    14    11    12  ar
    15    13    12  ar
    16    14    13  ar
    17    15    16  ar
    18    20    15  ar
    19    17    16  ar
    20    18    17  ar
    21    19    18  ar
    22    19    20  ar
    23    23    19   1
    24    21    25  ar
    25    26    21  ar
    26    22    23  ar
    27    22    26  ar
    28    23    24  ar
    29    24    25  ar
    30    26    27   1
    31    27    28   1
    32     4    29   1
    33     7    30   1
    34     7    31   1
    35     8    32   1
    36     8    33   1
    37     8    34   1
    38    10    35   1
    39    11    36   1
    40    12    37   1
    41    13    38   1
    42    14    39   1
    43    16    40   1
    44    17    41   1
    45    18    42   1
    46    20    43   1
    47    21    44   1
    48    22    45   1
    49    24    46   1
    50    25    47   1
    51    28    48   1
    52    28    49   1
    53    28    50   1
@<TRIPOS>SUBSTRUCTURE
     1  MOL      2

