@<TRIPOS>MOLECULE
4djv_ligand_014
    50    53
SMALL
GAST_HUCK
****
This file was generated by PARSER (from files_GN.cpp)

@<TRIPOS>ATOM
      1 O1         17.3181   10.0745   19.4464 O.2         1 MOL      -0.3721
      2 C1         16.8977    9.5366   20.4620 C.2         1 MOL       0.1984
      3 C2         17.1969   10.0309   21.8143 C.3         1 MOL       0.1861
      4 N1         16.2600    9.1986   22.5085 N.pl3       1 MOL      -0.2773
      5 C3         15.6062    8.3486   21.7051 C.cat       1 MOL       0.3179
      6 N2         16.0183    8.5489   20.4448 N.am        1 MOL      -0.2211
      7 N3         14.6666    7.4640   22.0906 N.pl3       1 MOL      -0.2550
      8 C4         15.5313    7.8139   19.3102 C.3         1 MOL       0.0234
      9 C5         18.6089    9.6726   22.2617 C.ar        1 MOL      -0.0137
     10 C6         18.9189    9.5873   23.6478 C.ar        1 MOL      -0.0453
     11 C7         20.2300    9.3433   24.1014 C.ar        1 MOL      -0.0390
     12 C8         21.2666    9.1252   23.1799 C.ar        1 MOL      -0.0398
     13 C9         20.9925    9.1812   21.8050 C.ar        1 MOL      -0.0390
     14 C10        19.6892    9.4640   21.3553 C.ar        1 MOL      -0.0453
     15 C11        16.7905   11.4858   22.0218 C.ar        1 MOL      -0.0130
     16 C12        15.6041   11.9911   21.4232 C.ar        1 MOL      -0.0451
     17 C13        15.2126   13.3342   21.5557 C.ar        1 MOL      -0.0383
     18 C14        15.9323   14.1980   22.3920 C.ar        1 MOL      -0.0321
     19 C15        17.0735   13.7260   23.0667 C.ar        1 MOL       0.0021
     20 C16        17.5132   12.4011   22.8412 C.ar        1 MOL      -0.0377
     21 C17        19.0438   16.1282   25.9514 C.ar        1 MOL      -0.0329
     22 C18        18.9309   15.2135   23.6927 C.ar        1 MOL      -0.0254
     23 C19        17.7262   14.5504   24.0141 C.ar        1 MOL      -0.0214
     24 C20        17.1831   14.6940   25.3114 C.ar        1 MOL      -0.0645
     25 C21        17.8429   15.4748   26.2770 C.ar        1 MOL      -0.0697
     26 C22        19.5809   16.0183   24.6520 C.ar        1 MOL       0.0911
     27 O2         20.7482   16.6526   24.3278 O.3         1 MOL      -0.3214
     28 C23        20.5477   18.0088   23.8944 C.3         1 MOL       0.0593
     29 H1         16.1183    9.2352   23.4684 H           1 MOL       0.3068
     30 H2         14.3641    7.4232   23.0098 H           1 MOL       0.3199
     31 H3         14.2442    6.8930   21.4246 H           1 MOL       0.3199
     32 H4         16.0260    8.1080   18.3871 H           1 MOL       0.0484
     33 H5         14.4579    7.9754   19.1920 H           1 MOL       0.0484
     34 H6         15.7180    6.7496   19.4615 H           1 MOL       0.0484
     35 H7         18.1901    9.7482   24.3477 H           1 MOL       0.0795
     36 H8         20.4362    9.3389   25.1034 H           1 MOL       0.0681
     37 H9         22.2184    8.9341   23.5054 H           1 MOL       0.0806
     38 H10        21.7451    9.0302   21.1286 H           1 MOL       0.0681
     39 H11        19.5504    9.5231   20.3444 H           1 MOL       0.0795
     40 H12        15.0107   11.3811   20.8590 H           1 MOL       0.0796
     41 H13        14.3895   13.6818   21.0574 H           1 MOL       0.0682
     42 H14        15.6115   15.1639   22.5129 H           1 MOL       0.0813
     43 H15        18.3632   12.1062   23.3186 H           1 MOL       0.0801
     44 H16        19.5234   16.6909   26.6589 H           1 MOL       0.0545
     45 H17        19.3353   15.1237   22.7570 H           1 MOL       0.0544
     46 H18        16.3113   14.2198   25.5669 H           1 MOL       0.0532
     47 H19        17.4504   15.5652   27.2173 H           1 MOL       0.0590
     48 H20        21.5112   18.4126   23.5796 H           1 MOL       0.0577
     49 H21        20.1663   18.6317   24.7071 H           1 MOL       0.0577
     50 H22        19.8641   18.0626   23.0432 H           1 MOL       0.0577
@<TRIPOS>BOND
     1     2     1   2
     2     3     2   1
     3     2     6  am
     4     3     4   1
     5     3     9   1
     6    15     3   1
     7     4     5  ar
     8     5     6   1
     9     5     7  ar
    10     6     8   1
    11     9    10  ar
    12     9    14  ar
    13    10    11  ar
    14    11    12  ar
    15    13    12  ar
    16    14    13  ar
    17    15    16  ar
    18    20    15  ar
    19    17    16  ar
    20    18    17  ar
    21    19    18  ar
    22    19    20  ar
    23    23    19   1
    24    21    25  ar
    25    26    21  ar
    26    22    23  ar
    27    22    26  ar
    28    23    24  ar
    29    24    25  ar
    30    26    27   1
    31    27    28   1
    32     4    29   1
    33     7    30   1
    34     7    31   1
    35     8    32   1
    36     8    33   1
    37     8    34   1
    38    10    35   1
    39    11    36   1
    40    12    37   1
    41    13    38   1
    42    14    39   1
    43    16    40   1
    44    17    41   1
    45    18    42   1
    46    20    43   1
    47    21    44   1
    48    22    45   1
    49    24    46   1
    50    25    47   1
    51    28    48   1
    52    28    49   1
    53    28    50   1
@<TRIPOS>SUBSTRUCTURE
     1  MOL      2

