@<TRIPOS>MOLECULE
4djv_ligand_002
    50    53
SMALL
GAST_HUCK
****
This file was generated by PARSER (from files_GN.cpp)

@<TRIPOS>ATOM
      1 O1         18.9491   12.1724   24.1713 O.2         1 MOL      -0.3721
      2 C1         19.5455   11.1124   24.0176 C.2         1 MOL       0.1984
      3 C2         19.3457   10.2585   22.8457 C.3         1 MOL       0.1861
      4 N1         20.2681    9.2231   23.1981 N.pl3       1 MOL      -0.2773
      5 C3         20.9187    9.4873   24.3400 C.cat       1 MOL       0.3179
      6 N2         20.4552   10.6372   24.8559 N.am        1 MOL      -0.2211
      7 N3         21.8916    8.7040   24.8362 N.pl3       1 MOL      -0.2550
      8 C4         20.9095   11.2267   26.0834 C.3         1 MOL       0.0234
      9 C5         17.8922    9.8111   22.8716 C.ar        1 MOL      -0.0137
     10 C6         17.4118    8.9235   23.8719 C.ar        1 MOL      -0.0453
     11 C7         16.0690    8.5103   23.9299 C.ar        1 MOL      -0.0390
     12 C8         15.1548    8.9783   22.9719 C.ar        1 MOL      -0.0398
     13 C9         15.5805    9.8901   21.9916 C.ar        1 MOL      -0.0390
     14 C10        16.9196   10.3350   21.9760 C.ar        1 MOL      -0.0453
     15 C11        19.8738   10.8100   21.5355 C.ar        1 MOL      -0.0130
     16 C12        19.5005   10.2101   20.3103 C.ar        1 MOL      -0.0451
     17 C13        19.8449   10.8028   19.0874 C.ar        1 MOL      -0.0383
     18 C14        20.6976   11.9202   19.0663 C.ar        1 MOL      -0.0321
     19 C15        21.2737   12.4501   20.2519 C.ar        1 MOL       0.0021
     20 C16        20.8244   11.8688   21.4690 C.ar        1 MOL      -0.0377
     21 C17        24.1764   15.6388   20.0918 C.ar        1 MOL      -0.0329
     22 C18        22.4969   14.3835   21.3192 C.ar        1 MOL      -0.0254
     23 C19        22.2496   13.5241   20.2132 C.ar        1 MOL      -0.0214
     24 C20        23.0444   13.7507   19.0564 C.ar        1 MOL      -0.0645
     25 C21        23.9705   14.8032   18.9823 C.ar        1 MOL      -0.0697
     26 C22        23.4793   15.3966   21.2900 C.ar        1 MOL       0.0911
     27 O2         23.6737   16.1498   22.4191 O.3         1 MOL      -0.3214
     28 C23        25.0363   16.2711   22.8850 C.3         1 MOL       0.0593
     29 H1         20.4880    8.4595   22.6375 H           1 MOL       0.3068
     30 H2         22.1556    7.9077   24.3519 H           1 MOL       0.3199
     31 H3         22.3554    8.9490   25.6554 H           1 MOL       0.3199
     32 H4         20.3905   12.1607   26.3114 H           1 MOL       0.0484
     33 H5         21.9787   11.4384   26.0235 H           1 MOL       0.0484
     34 H6         20.7346   10.5329   26.9066 H           1 MOL       0.0484
     35 H7         18.0436    8.5742   24.5850 H           1 MOL       0.0795
     36 H8         15.7563    7.8732   24.6648 H           1 MOL       0.0681
     37 H9         14.1790    8.6693   23.0032 H           1 MOL       0.0806
     38 H10        14.9082   10.2370   21.3022 H           1 MOL       0.0681
     39 H11        17.1855   11.0464   21.2928 H           1 MOL       0.0795
     40 H12        18.9060    9.3823   20.2965 H           1 MOL       0.0796
     41 H13        19.4909   10.4204   18.2129 H           1 MOL       0.0682
     42 H14        20.8939   12.3482   18.1624 H           1 MOL       0.0813
     43 H15        21.2249   12.2060   22.3423 H           1 MOL       0.0801
     44 H16        24.8460   16.4054   20.0297 H           1 MOL       0.0545
     45 H17        21.9522   14.2869   22.1730 H           1 MOL       0.0544
     46 H18        22.9670   13.1376   18.2462 H           1 MOL       0.0532
     47 H19        24.4995   14.9514   18.1230 H           1 MOL       0.0590
     48 H20        25.0349   16.7258   23.8745 H           1 MOL       0.0577
     49 H21        25.6142   16.9150   22.2183 H           1 MOL       0.0577
     50 H22        25.5320   15.2998   22.9684 H           1 MOL       0.0577
@<TRIPOS>BOND
     1     2     1   2
     2     3     2   1
     3     2     6  am
     4     3     4   1
     5     3     9   1
     6    15     3   1
     7     4     5  ar
     8     5     6   1
     9     5     7  ar
    10     6     8   1
    11     9    10  ar
    12     9    14  ar
    13    10    11  ar
    14    11    12  ar
    15    13    12  ar
    16    14    13  ar
    17    15    16  ar
    18    20    15  ar
    19    17    16  ar
    20    18    17  ar
    21    19    18  ar
    22    19    20  ar
    23    23    19   1
    24    21    25  ar
    25    26    21  ar
    26    22    23  ar
    27    22    26  ar
    28    23    24  ar
    29    24    25  ar
    30    26    27   1
    31    27    28   1
    32     4    29   1
    33     7    30   1
    34     7    31   1
    35     8    32   1
    36     8    33   1
    37     8    34   1
    38    10    35   1
    39    11    36   1
    40    12    37   1
    41    13    38   1
    42    14    39   1
    43    16    40   1
    44    17    41   1
    45    18    42   1
    46    20    43   1
    47    21    44   1
    48    22    45   1
    49    24    46   1
    50    25    47   1
    51    28    48   1
    52    28    49   1
    53    28    50   1
@<TRIPOS>SUBSTRUCTURE
     1  MOL      2

