@<TRIPOS>MOLECULE
4djv_ligand_008
    50    53
SMALL
GAST_HUCK
****
This file was generated by PARSER (from files_GN.cpp)

@<TRIPOS>ATOM
      1 O1         17.5233    9.8319   19.6204 O.2         1 MOL      -0.3721
      2 C1         16.8586    9.3827   20.5439 C.2         1 MOL       0.1984
      3 C2         16.8352    9.9610   21.8942 C.3         1 MOL       0.1861
      4 N1         15.9437    9.0008   22.4669 N.pl3       1 MOL      -0.2773
      5 C3         15.5082    8.0851   21.5924 C.cat       1 MOL       0.3179
      6 N2         16.1220    8.2899   20.4233 N.am        1 MOL      -0.2211
      7 N3         14.5960    7.1403   21.8782 N.pl3       1 MOL      -0.2550
      8 C4         15.9973    7.4289   19.2818 C.3         1 MOL       0.0234
      9 C5         18.1337    9.9019   22.6632 C.ar        1 MOL      -0.0137
     10 C6         18.1391   10.2619   24.0371 C.ar        1 MOL      -0.0453
     11 C7         19.3165   10.2182   24.8067 C.ar        1 MOL      -0.0390
     12 C8         20.5247    9.8101   24.2205 C.ar        1 MOL      -0.0398
     13 C9         20.5493    9.4333   22.8692 C.ar        1 MOL      -0.0390
     14 C10        19.3673    9.4766   22.1030 C.ar        1 MOL      -0.0453
     15 C11        16.2475   11.3599   21.9450 C.ar        1 MOL      -0.0130
     16 C12        16.6059   12.3435   20.9860 C.ar        1 MOL      -0.0451
     17 C13        16.0443   13.6286   21.0128 C.ar        1 MOL      -0.0383
     18 C14        15.1826   13.9993   22.0554 C.ar        1 MOL      -0.0321
     19 C15        14.8352   13.0835   23.0754 C.ar        1 MOL       0.0021
     20 C16        15.3684   11.7710   22.9839 C.ar        1 MOL      -0.0377
     21 C17        12.2521   14.2782   26.2784 C.ar        1 MOL      -0.0329
     22 C18        12.7755   14.2068   23.9027 C.ar        1 MOL      -0.0254
     23 C19        13.9669   13.4762   24.1502 C.ar        1 MOL      -0.0214
     24 C20        14.2809   13.1730   25.4986 C.ar        1 MOL      -0.0645
     25 C21        13.4332   13.5695   26.5518 C.ar        1 MOL      -0.0697
     26 C22        11.9136   14.5951   24.9508 C.ar        1 MOL       0.0911
     27 O2         10.7881   15.3350   24.6955 O.3         1 MOL      -0.3214
     28 C23         9.8053   14.6452   23.9040 C.3         1 MOL       0.0593
     29 H1         15.6706    9.0167   23.3968 H           1 MOL       0.3068
     30 H2         14.1549    7.1281   22.7414 H           1 MOL       0.3199
     31 H3         14.3119    6.5214   21.1867 H           1 MOL       0.3199
     32 H4         16.6571    7.7230   18.4627 H           1 MOL       0.0484
     33 H5         14.9694    7.4362   18.9158 H           1 MOL       0.0484
     34 H6         16.2644    6.4099   19.5676 H           1 MOL       0.0484
     35 H7         17.2767   10.5579   24.4972 H           1 MOL       0.0795
     36 H8         19.2866   10.4732   25.7973 H           1 MOL       0.0681
     37 H9         21.3828    9.7872   24.7763 H           1 MOL       0.0806
     38 H10        21.4256    9.1275   22.4398 H           1 MOL       0.0681
     39 H11        19.4375    9.1836   21.1273 H           1 MOL       0.0795
     40 H12        17.2705   12.1315   20.2436 H           1 MOL       0.0796
     41 H13        16.2626   14.2959   20.2691 H           1 MOL       0.0682
     42 H14        14.8236   14.9555   22.0618 H           1 MOL       0.0813
     43 H15        15.1105   11.0986   23.7091 H           1 MOL       0.0801
     44 H16        11.6436   14.5730   27.0478 H           1 MOL       0.0545
     45 H17        12.5091   14.4538   22.9472 H           1 MOL       0.0544
     46 H18        15.1468   12.6855   25.7356 H           1 MOL       0.0532
     47 H19        13.6851   13.3552   27.5205 H           1 MOL       0.0590
     48 H20         8.9400   15.3006   23.7923 H           1 MOL       0.0577
     49 H21         9.4735   13.7238   24.3922 H           1 MOL       0.0577
     50 H22        10.1884   14.4128   22.9066 H           1 MOL       0.0577
@<TRIPOS>BOND
     1     2     1   2
     2     3     2   1
     3     2     6  am
     4     3     4   1
     5     3     9   1
     6    15     3   1
     7     4     5  ar
     8     5     6   1
     9     5     7  ar
    10     6     8   1
    11     9    10  ar
    12     9    14  ar
    13    10    11  ar
    14    11    12  ar
    15    13    12  ar
    16    14    13  ar
    17    15    16  ar
    18    20    15  ar
    19    17    16  ar
    20    18    17  ar
    21    19    18  ar
    22    19    20  ar
    23    23    19   1
    24    21    25  ar
    25    26    21  ar
    26    22    23  ar
    27    22    26  ar
    28    23    24  ar
    29    24    25  ar
    30    26    27   1
    31    27    28   1
    32     4    29   1
    33     7    30   1
    34     7    31   1
    35     8    32   1
    36     8    33   1
    37     8    34   1
    38    10    35   1
    39    11    36   1
    40    12    37   1
    41    13    38   1
    42    14    39   1
    43    16    40   1
    44    17    41   1
    45    18    42   1
    46    20    43   1
    47    21    44   1
    48    22    45   1
    49    24    46   1
    50    25    47   1
    51    28    48   1
    52    28    49   1
    53    28    50   1
@<TRIPOS>SUBSTRUCTURE
     1  MOL      2

