@<TRIPOS>MOLECULE
4djv_ligand_034
    50    53
SMALL
GAST_HUCK
****
This file was generated by PARSER (from files_GN.cpp)

@<TRIPOS>ATOM
      1 O1         19.1070    8.2055   20.9258 O.2         1 MOL      -0.3721
      2 C1         18.0618    8.8443   20.8871 C.2         1 MOL       0.1984
      3 C2         17.9358   10.1809   21.4609 C.3         1 MOL       0.1861
      4 N1         16.6149   10.4644   20.9959 N.pl3       1 MOL      -0.2773
      5 C3         16.0623    9.4270   20.3549 C.cat       1 MOL       0.3179
      6 N2         16.9656    8.4347   20.2767 N.am        1 MOL      -0.2211
      7 N3         14.7970    9.4093   19.9039 N.pl3       1 MOL      -0.2550
      8 C4         16.7394    7.1719   19.6320 C.3         1 MOL       0.0234
      9 C5         18.0197   10.0346   22.9673 C.ar        1 MOL      -0.0137
     10 C6         19.2573   10.2550   23.6316 C.ar        1 MOL      -0.0453
     11 C7         19.3402   10.2936   25.0346 C.ar        1 MOL      -0.0390
     12 C8         18.2011   10.0170   25.8083 C.ar        1 MOL      -0.0398
     13 C9         16.9855    9.7071   25.1796 C.ar        1 MOL      -0.0390
     14 C10        16.8948    9.7292   23.7759 C.ar        1 MOL      -0.0453
     15 C11        18.8565   11.2371   20.8790 C.ar        1 MOL      -0.0130
     16 C12        19.5232   11.0622   19.6399 C.ar        1 MOL      -0.0451
     17 C13        20.5072   11.9681   19.2112 C.ar        1 MOL      -0.0383
     18 C14        20.8416   13.0721   20.0060 C.ar        1 MOL      -0.0321
     19 C15        20.1560   13.3380   21.2149 C.ar        1 MOL       0.0021
     20 C16        19.1389   12.4305   21.5982 C.ar        1 MOL      -0.0377
     21 C17        21.1160   16.8352   23.4879 C.ar        1 MOL      -0.0329
     22 C18        19.4758   15.2441   22.6478 C.ar        1 MOL      -0.0254
     23 C19        20.4889   14.4764   22.0240 C.ar        1 MOL      -0.0214
     24 C20        21.8306   14.8979   22.1934 C.ar        1 MOL      -0.0645
     25 C21        22.1446   16.0626   22.9160 C.ar        1 MOL      -0.0697
     26 C22        19.7734   16.4215   23.3659 C.ar        1 MOL       0.0911
     27 O2         18.7816   17.2131   23.8765 O.3         1 MOL      -0.3214
     28 C23        18.5069   16.9595   25.2660 C.3         1 MOL       0.0593
     29 H1         16.1391   11.2878   21.1958 H           1 MOL       0.3068
     30 H2         14.2165   10.1729   20.0478 H           1 MOL       0.3199
     31 H3         14.4500    8.6240   19.4505 H           1 MOL       0.3199
     32 H4         17.6000    6.5028   19.7208 H           1 MOL       0.0484
     33 H5         16.5364    7.3270   18.5710 H           1 MOL       0.0484
     34 H6         15.8812    6.6750   20.0864 H           1 MOL       0.0484
     35 H7         20.1003   10.4761   23.1005 H           1 MOL       0.0795
     36 H8         20.2240   10.5299   25.4901 H           1 MOL       0.0681
     37 H9         18.2708   10.0282   26.8259 H           1 MOL       0.0806
     38 H10        16.1627    9.4783   25.7455 H           1 MOL       0.0681
     39 H11        15.9876    9.5184   23.3520 H           1 MOL       0.0795
     40 H12        19.3242   10.2562   19.0443 H           1 MOL       0.0796
     41 H13        21.0020   11.8097   18.3308 H           1 MOL       0.0682
     42 H14        21.5805   13.6966   19.6746 H           1 MOL       0.0813
     43 H15        18.6531   12.5976   22.4785 H           1 MOL       0.0801
     44 H16        21.3437   17.6933   23.9863 H           1 MOL       0.0545
     45 H17        18.4930   14.9833   22.5474 H           1 MOL       0.0544
     46 H18        22.6037   14.3623   21.7892 H           1 MOL       0.0532
     47 H19        23.1169   16.3585   23.0154 H           1 MOL       0.0590
     48 H20        17.8091   17.7228   25.6135 H           1 MOL       0.0577
     49 H21        19.4107   17.0173   25.8802 H           1 MOL       0.0577
     50 H22        18.0376   15.9856   25.4031 H           1 MOL       0.0577
@<TRIPOS>BOND
     1     2     1   2
     2     3     2   1
     3     2     6  am
     4     3     4   1
     5     3     9   1
     6    15     3   1
     7     4     5  ar
     8     5     6   1
     9     5     7  ar
    10     6     8   1
    11     9    10  ar
    12     9    14  ar
    13    10    11  ar
    14    11    12  ar
    15    13    12  ar
    16    14    13  ar
    17    15    16  ar
    18    20    15  ar
    19    17    16  ar
    20    18    17  ar
    21    19    18  ar
    22    19    20  ar
    23    23    19   1
    24    21    25  ar
    25    26    21  ar
    26    22    23  ar
    27    22    26  ar
    28    23    24  ar
    29    24    25  ar
    30    26    27   1
    31    27    28   1
    32     4    29   1
    33     7    30   1
    34     7    31   1
    35     8    32   1
    36     8    33   1
    37     8    34   1
    38    10    35   1
    39    11    36   1
    40    12    37   1
    41    13    38   1
    42    14    39   1
    43    16    40   1
    44    17    41   1
    45    18    42   1
    46    20    43   1
    47    21    44   1
    48    22    45   1
    49    24    46   1
    50    25    47   1
    51    28    48   1
    52    28    49   1
    53    28    50   1
@<TRIPOS>SUBSTRUCTURE
     1  MOL      2

