@<TRIPOS>MOLECULE
4djv_ligand_040
    50    53
SMALL
GAST_HUCK
****
This file was generated by PARSER (from files_GN.cpp)

@<TRIPOS>ATOM
      1 O1         21.9990   15.3664   23.8842 O.2         1 MOL      -0.3721
      2 C1         21.3712   14.5710   24.5728 C.2         1 MOL       0.1984
      3 C2         19.9640   14.2321   24.3276 C.3         1 MOL       0.1861
      4 N1         19.7617   13.4573   25.5102 N.pl3       1 MOL      -0.2773
      5 C3         20.8656   13.3153   26.2439 C.cat       1 MOL       0.3179
      6 N2         21.8520   14.0267   25.6842 N.am        1 MOL      -0.2211
      7 N3         20.9138   12.5534   27.3539 N.pl3       1 MOL      -0.2550
      8 C4         23.1588   14.1783   26.2528 C.3         1 MOL       0.0234
      9 C5         18.9973   15.3978   24.4213 C.ar        1 MOL      -0.0137
     10 C6         19.2585   16.5156   25.2639 C.ar        1 MOL      -0.0453
     11 C7         18.3334   17.5636   25.4191 C.ar        1 MOL      -0.0390
     12 C8         17.1028   17.5175   24.7465 C.ar        1 MOL      -0.0398
     13 C9         16.7997   16.4175   23.9288 C.ar        1 MOL      -0.0390
     14 C10        17.7298   15.3719   23.7771 C.ar        1 MOL      -0.0453
     15 C11        19.8009   13.3761   23.0827 C.ar        1 MOL      -0.0130
     16 C12        20.3695   13.7606   21.8429 C.ar        1 MOL      -0.0451
     17 C13        20.1643   13.0085   20.6790 C.ar        1 MOL      -0.0383
     18 C14        19.3276   11.8797   20.7051 C.ar        1 MOL      -0.0321
     19 C15        18.6532   11.4989   21.8925 C.ar        1 MOL       0.0021
     20 C16        18.9352   12.2478   23.0649 C.ar        1 MOL      -0.0377
     21 C17        15.5363    8.5597   21.9454 C.ar        1 MOL      -0.0329
     22 C18        16.7782   10.2938   20.7828 C.ar        1 MOL      -0.0254
     23 C19        17.6595   10.4585   21.8909 C.ar        1 MOL      -0.0214
     24 C20        17.4494    9.6147   23.0140 C.ar        1 MOL      -0.0645
     25 C21        16.3962    8.6824   23.0456 C.ar        1 MOL      -0.0697
     26 C22        15.7333    9.3482   20.7936 C.ar        1 MOL       0.0911
     27 O2         14.8815    9.3372   19.7118 O.3         1 MOL      -0.3214
     28 C23        14.5597    8.0600   19.1374 C.3         1 MOL       0.0593
     29 H1         18.9202   13.0316   25.7337 H           1 MOL       0.3068
     30 H2         20.1256   12.0676   27.6382 H           1 MOL       0.3199
     31 H3         21.7419   12.4628   27.8471 H           1 MOL       0.3199
     32 H4         23.7990   14.8306   25.6562 H           1 MOL       0.0484
     33 H5         23.6463   13.2043   26.3368 H           1 MOL       0.0484
     34 H6         23.0701   14.6102   27.2524 H           1 MOL       0.0484
     35 H7         20.1368   16.5756   25.7856 H           1 MOL       0.0795
     36 H8         18.5555   18.3619   26.0211 H           1 MOL       0.0681
     37 H9         16.4285   18.2763   24.8542 H           1 MOL       0.0806
     38 H10        15.8986   16.3733   23.4510 H           1 MOL       0.0681
     39 H11        17.4528   14.5817   23.1936 H           1 MOL       0.0795
     40 H12        20.9224   14.6155   21.7734 H           1 MOL       0.0796
     41 H13        20.6023   13.2845   19.7980 H           1 MOL       0.0682
     42 H14        19.1977   11.3465   19.8428 H           1 MOL       0.0813
     43 H15        18.4136   12.0236   23.9121 H           1 MOL       0.0801
     44 H16        14.7547    7.9065   22.0057 H           1 MOL       0.0545
     45 H17        16.8613   10.9112   19.9705 H           1 MOL       0.0544
     46 H18        18.0511    9.6819   23.8383 H           1 MOL       0.0532
     47 H19        16.2370    8.1121   23.8761 H           1 MOL       0.0590
     48 H20        14.0364    8.2301   18.1973 H           1 MOL       0.0577
     49 H21        13.8884    7.5041   19.7922 H           1 MOL       0.0577
     50 H22        15.4573    7.4694   18.9369 H           1 MOL       0.0577
@<TRIPOS>BOND
     1     2     1   2
     2     3     2   1
     3     2     6  am
     4     3     4   1
     5     3     9   1
     6    15     3   1
     7     4     5  ar
     8     5     6   1
     9     5     7  ar
    10     6     8   1
    11     9    10  ar
    12     9    14  ar
    13    10    11  ar
    14    11    12  ar
    15    13    12  ar
    16    14    13  ar
    17    15    16  ar
    18    20    15  ar
    19    17    16  ar
    20    18    17  ar
    21    19    18  ar
    22    19    20  ar
    23    23    19   1
    24    21    25  ar
    25    26    21  ar
    26    22    23  ar
    27    22    26  ar
    28    23    24  ar
    29    24    25  ar
    30    26    27   1
    31    27    28   1
    32     4    29   1
    33     7    30   1
    34     7    31   1
    35     8    32   1
    36     8    33   1
    37     8    34   1
    38    10    35   1
    39    11    36   1
    40    12    37   1
    41    13    38   1
    42    14    39   1
    43    16    40   1
    44    17    41   1
    45    18    42   1
    46    20    43   1
    47    21    44   1
    48    22    45   1
    49    24    46   1
    50    25    47   1
    51    28    48   1
    52    28    49   1
    53    28    50   1
@<TRIPOS>SUBSTRUCTURE
     1  MOL      2

