@<TRIPOS>MOLECULE
4djv_ligand_035
    50    53
SMALL
GAST_HUCK
****
This file was generated by PARSER (from files_GN.cpp)

@<TRIPOS>ATOM
      1 O1         17.6366   10.8203   20.3493 O.2         1 MOL      -0.3721
      2 C1         17.3773   10.4169   21.4776 C.2         1 MOL       0.1984
      3 C2         18.1094   10.8438   22.6694 C.3         1 MOL       0.1861
      4 N1         17.3067   10.1679   23.6380 N.pl3       1 MOL      -0.2773
      5 C3         16.3239    9.4442   23.0855 C.cat       1 MOL       0.3179
      6 N2         16.3849    9.5883   21.7537 N.am        1 MOL      -0.2211
      7 N3         15.4462    8.7247   23.8094 N.pl3       1 MOL      -0.2550
      8 C4         15.4936    8.9492   20.8250 C.3         1 MOL       0.0234
      9 C5         19.5182   10.2821   22.6139 C.ar        1 MOL      -0.0137
     10 C6         20.0114    9.3481   23.5664 C.ar        1 MOL      -0.0453
     11 C7         21.3323    8.8710   23.5161 C.ar        1 MOL      -0.0390
     12 C8         22.2037    9.3173   22.5087 C.ar        1 MOL      -0.0398
     13 C9         21.7480   10.2393   21.5519 C.ar        1 MOL      -0.0390
     14 C10        20.4255   10.7109   21.6060 C.ar        1 MOL      -0.0453
     15 C11        17.9875   12.3297   22.9590 C.ar        1 MOL      -0.0130
     16 C12        19.1098   13.1349   23.2915 C.ar        1 MOL      -0.0451
     17 C13        18.9746   14.4935   23.6145 C.ar        1 MOL      -0.0383
     18 C14        17.7033   15.0816   23.6542 C.ar        1 MOL      -0.0321
     19 C15        16.5467   14.3226   23.3671 C.ar        1 MOL       0.0021
     20 C16        16.7120   12.9635   23.0034 C.ar        1 MOL      -0.0377
     21 C17        12.6802   16.0639   23.8421 C.ar        1 MOL      -0.0329
     22 C18        14.2796   14.8323   22.4843 C.ar        1 MOL      -0.0254
     23 C19        15.2552   14.9086   23.5099 C.ar        1 MOL      -0.0214
     24 C20        14.9099   15.5890   24.7016 C.ar        1 MOL      -0.0645
     25 C21        13.6366   16.1614   24.8700 C.ar        1 MOL      -0.0697
     26 C22        13.0090   15.4310   22.6249 C.ar        1 MOL       0.0911
     27 O2         12.1025   15.3063   21.5995 O.3         1 MOL      -0.3214
     28 C23        11.4794   16.5297   21.1576 C.3         1 MOL       0.0593
     29 H1         17.4657   10.2151   24.5936 H           1 MOL       0.3068
     30 H2         15.5149    8.7117   24.7776 H           1 MOL       0.3199
     31 H3         14.7353    8.2247   23.3733 H           1 MOL       0.3199
     32 H4         15.7424    9.1804   19.7875 H           1 MOL       0.0484
     33 H5         14.4698    9.2772   21.0114 H           1 MOL       0.0484
     34 H6         15.5463    7.8655   20.9513 H           1 MOL       0.0484
     35 H7         19.4144    9.0054   24.3188 H           1 MOL       0.0795
     36 H8         21.6638    8.2022   24.2185 H           1 MOL       0.0681
     37 H9         23.1673    8.9748   22.4766 H           1 MOL       0.0806
     38 H10        22.3851   10.5738   20.8247 H           1 MOL       0.0681
     39 H11        20.1324   11.4025   20.9134 H           1 MOL       0.0795
     40 H12        20.0522   12.7437   23.3255 H           1 MOL       0.0796
     41 H13        19.8054   15.0482   23.8403 H           1 MOL       0.0682
     42 H14        17.6312   16.0712   23.9020 H           1 MOL       0.0813
     43 H15        15.8758   12.4055   22.8185 H           1 MOL       0.0801
     44 H16        11.7454   16.4578   23.9837 H           1 MOL       0.0545
     45 H17        14.4980   14.3552   21.6096 H           1 MOL       0.0544
     46 H18        15.5818   15.6575   25.4701 H           1 MOL       0.0532
     47 H19        13.4041   16.6390   25.7493 H           1 MOL       0.0590
     48 H20        10.8768   16.2999   20.2785 H           1 MOL       0.0577
     49 H21        12.2212   17.2885   20.8851 H           1 MOL       0.0577
     50 H22        10.8085   16.9377   21.9197 H           1 MOL       0.0577
@<TRIPOS>BOND
     1     2     1   2
     2     3     2   1
     3     2     6  am
     4     3     4   1
     5     3     9   1
     6    15     3   1
     7     4     5  ar
     8     5     6   1
     9     5     7  ar
    10     6     8   1
    11     9    10  ar
    12     9    14  ar
    13    10    11  ar
    14    11    12  ar
    15    13    12  ar
    16    14    13  ar
    17    15    16  ar
    18    20    15  ar
    19    17    16  ar
    20    18    17  ar
    21    19    18  ar
    22    19    20  ar
    23    23    19   1
    24    21    25  ar
    25    26    21  ar
    26    22    23  ar
    27    22    26  ar
    28    23    24  ar
    29    24    25  ar
    30    26    27   1
    31    27    28   1
    32     4    29   1
    33     7    30   1
    34     7    31   1
    35     8    32   1
    36     8    33   1
    37     8    34   1
    38    10    35   1
    39    11    36   1
    40    12    37   1
    41    13    38   1
    42    14    39   1
    43    16    40   1
    44    17    41   1
    45    18    42   1
    46    20    43   1
    47    21    44   1
    48    22    45   1
    49    24    46   1
    50    25    47   1
    51    28    48   1
    52    28    49   1
    53    28    50   1
@<TRIPOS>SUBSTRUCTURE
     1  MOL      2

