@<TRIPOS>MOLECULE
4djv_ligand_029
    50    53
SMALL
GAST_HUCK
****
This file was generated by PARSER (from files_GN.cpp)

@<TRIPOS>ATOM
      1 O1         18.6304   10.0768   20.6532 O.2         1 MOL      -0.3721
      2 C1         17.7957    9.6196   21.4323 C.2         1 MOL       0.1984
      3 C2         17.4879   10.2519   22.7189 C.3         1 MOL       0.1861
      4 N1         16.3844    9.4215   23.0808 N.pl3       1 MOL      -0.2773
      5 C3         16.1379    8.4607   22.1759 C.cat       1 MOL       0.3179
      6 N2         17.0269    8.5800   21.1767 N.am        1 MOL      -0.2211
      7 N3         15.1333    7.5724   22.2659 N.pl3       1 MOL      -0.2550
      8 C4         17.0590    7.7186   20.0234 C.3         1 MOL       0.0234
      9 C5         18.5454   10.0674   23.7950 C.ar        1 MOL      -0.0137
     10 C6         18.2555   10.5030   25.1177 C.ar        1 MOL      -0.0453
     11 C7         19.2219   10.4506   26.1367 C.ar        1 MOL      -0.0390
     12 C8         20.4975    9.9238   25.8722 C.ar        1 MOL      -0.0398
     13 C9         20.7950    9.4379   24.5927 C.ar        1 MOL      -0.0390
     14 C10        19.8365    9.5142   23.5648 C.ar        1 MOL      -0.0453
     15 C11        17.0054   11.6745   22.5039 C.ar        1 MOL      -0.0130
     16 C12        15.8779   11.9319   21.6804 C.ar        1 MOL      -0.0451
     17 C13        15.3739   13.2289   21.4977 C.ar        1 MOL      -0.0383
     18 C14        15.9533   14.3084   22.1782 C.ar        1 MOL      -0.0321
     19 C15        17.0912   14.1096   22.9882 C.ar        1 MOL       0.0021
     20 C16        17.6289   12.8072   23.1021 C.ar        1 MOL      -0.0377
     21 C17        18.7736   17.4034   25.0829 C.ar        1 MOL      -0.0329
     22 C18        16.9273   15.8592   24.7130 C.ar        1 MOL      -0.0254
     23 C19        17.6633   15.2011   23.6940 C.ar        1 MOL      -0.0214
     24 C20        18.9673   15.6560   23.3919 C.ar        1 MOL      -0.0645
     25 C21        19.5147   16.7575   24.0782 C.ar        1 MOL      -0.0697
     26 C22        17.4867   16.9381   25.4237 C.ar        1 MOL       0.0911
     27 O2         16.7609   17.5635   26.4017 O.3         1 MOL      -0.3214
     28 C23        17.0229   17.0480   27.7206 C.3         1 MOL       0.0593
     29 H1         15.8454    9.5554   23.8775 H           1 MOL       0.3068
     30 H2         14.5077    7.6040   23.0071 H           1 MOL       0.3199
     31 H3         14.9988    6.9238   21.5554 H           1 MOL       0.3199
     32 H4         17.8620    7.9882   19.3306 H           1 MOL       0.0484
     33 H5         16.1099    7.7801   19.4872 H           1 MOL       0.0484
     34 H6         17.2204    6.6857   20.3386 H           1 MOL       0.0484
     35 H7         17.3346   10.8974   25.3401 H           1 MOL       0.0795
     36 H8         18.9958   10.7979   27.0751 H           1 MOL       0.0681
     37 H9         21.1992    9.8779   26.6170 H           1 MOL       0.0806
     38 H10        21.7127    9.0257   24.4016 H           1 MOL       0.0681
     39 H11        20.1066    9.1624   22.6431 H           1 MOL       0.0795
     40 H12        15.4041   11.1624   21.1963 H           1 MOL       0.0796
     41 H13        14.5744   13.3898   20.8804 H           1 MOL       0.0682
     42 H14        15.5506   15.2420   22.0656 H           1 MOL       0.0813
     43 H15        18.4767   12.6866   23.6604 H           1 MOL       0.0801
     44 H16        19.1756   18.2037   25.5751 H           1 MOL       0.0545
     45 H17        15.9862   15.5403   24.9539 H           1 MOL       0.0544
     46 H18        19.5160   15.2074   22.6554 H           1 MOL       0.0532
     47 H19        20.4522   17.0908   23.8403 H           1 MOL       0.0590
     48 H20        16.3899   17.5823   28.4266 H           1 MOL       0.0577
     49 H21        18.0648   17.2076   28.0105 H           1 MOL       0.0577
     50 H22        16.7856   15.9831   27.7890 H           1 MOL       0.0577
@<TRIPOS>BOND
     1     2     1   2
     2     3     2   1
     3     2     6  am
     4     3     4   1
     5     3     9   1
     6    15     3   1
     7     4     5  ar
     8     5     6   1
     9     5     7  ar
    10     6     8   1
    11     9    10  ar
    12     9    14  ar
    13    10    11  ar
    14    11    12  ar
    15    13    12  ar
    16    14    13  ar
    17    15    16  ar
    18    20    15  ar
    19    17    16  ar
    20    18    17  ar
    21    19    18  ar
    22    19    20  ar
    23    23    19   1
    24    21    25  ar
    25    26    21  ar
    26    22    23  ar
    27    22    26  ar
    28    23    24  ar
    29    24    25  ar
    30    26    27   1
    31    27    28   1
    32     4    29   1
    33     7    30   1
    34     7    31   1
    35     8    32   1
    36     8    33   1
    37     8    34   1
    38    10    35   1
    39    11    36   1
    40    12    37   1
    41    13    38   1
    42    14    39   1
    43    16    40   1
    44    17    41   1
    45    18    42   1
    46    20    43   1
    47    21    44   1
    48    22    45   1
    49    24    46   1
    50    25    47   1
    51    28    48   1
    52    28    49   1
    53    28    50   1
@<TRIPOS>SUBSTRUCTURE
     1  MOL      2

