@<TRIPOS>MOLECULE
4djv_ligand_053
    50    53
SMALL
GAST_HUCK
****
This file was generated by PARSER (from files_GN.cpp)

@<TRIPOS>ATOM
      1 O1         14.4936   10.7139   21.1660 O.2         1 MOL      -0.3721
      2 C1         15.4066    9.9050   21.0750 C.2         1 MOL       0.1984
      3 C2         16.5239    9.8788   22.0115 C.3         1 MOL       0.1861
      4 N1         17.2616    8.8135   21.4056 N.pl3       1 MOL      -0.2773
      5 C3         16.6392    8.3011   20.3314 C.cat       1 MOL       0.3179
      6 N2         15.4922    8.9708   20.1424 N.am        1 MOL      -0.2211
      7 N3         17.1318    7.2971   19.5811 N.pl3       1 MOL      -0.2550
      8 C4         14.5461    8.7016   19.0966 C.3         1 MOL       0.0234
      9 C5         17.2790   11.1934   21.9342 C.ar        1 MOL      -0.0137
     10 C6         17.2378   12.1536   22.9827 C.ar        1 MOL      -0.0453
     11 C7         17.9852   13.3455   22.9224 C.ar        1 MOL      -0.0390
     12 C8         18.7533   13.6339   21.7829 C.ar        1 MOL      -0.0398
     13 C9         18.7651   12.7347   20.7043 C.ar        1 MOL      -0.0390
     14 C10        18.0354   11.5334   20.7806 C.ar        1 MOL      -0.0453
     15 C11        16.1878    9.4299   23.4210 C.ar        1 MOL      -0.0130
     16 C12        14.8666    9.2020   23.8877 C.ar        1 MOL      -0.0451
     17 C13        14.6111    8.9212   25.2412 C.ar        1 MOL      -0.0383
     18 C14        15.6704    8.8379   26.1571 C.ar        1 MOL      -0.0321
     19 C15        16.9997    9.0313   25.7289 C.ar        1 MOL       0.0021
     20 C16        17.2427    9.2995   24.3634 C.ar        1 MOL      -0.0377
     21 C17        20.2524    8.8355   28.4590 C.ar        1 MOL      -0.0329
     22 C18        18.9025   10.1064   26.8790 C.ar        1 MOL      -0.0254
     23 C19        18.0696    8.9807   26.6612 C.ar        1 MOL      -0.0214
     24 C20        18.3328    7.7905   27.3827 C.ar        1 MOL      -0.0645
     25 C21        19.4200    7.7180   28.2750 C.ar        1 MOL      -0.0697
     26 C22        19.9811   10.0460   27.7897 C.ar        1 MOL       0.0911
     27 O2         20.8214   11.1150   27.9569 O.3         1 MOL      -0.3214
     28 C23        20.3043   12.1551   28.8036 C.3         1 MOL       0.0593
     29 H1         18.1299    8.5125   21.7121 H           1 MOL       0.3068
     30 H2         17.9792    6.8889   19.8092 H           1 MOL       0.3199
     31 H3         16.6388    6.9862   18.8068 H           1 MOL       0.3199
     32 H4         13.6836    9.3626   19.1497 H           1 MOL       0.0484
     33 H5         14.1877    7.6749   19.1737 H           1 MOL       0.0484
     34 H6         15.0153    8.8388   18.1252 H           1 MOL       0.0484
     35 H7         16.6683   11.9932   23.8165 H           1 MOL       0.0795
     36 H8         17.9665   14.0082   23.7037 H           1 MOL       0.0681
     37 H9         19.2961   14.5014   21.7405 H           1 MOL       0.0806
     38 H10        19.3062   12.9558   19.8625 H           1 MOL       0.0681
     39 H11        18.0670   10.9037   19.9774 H           1 MOL       0.0795
     40 H12        14.0658    9.2639   23.2562 H           1 MOL       0.0796
     41 H13        13.6499    8.8061   25.5688 H           1 MOL       0.0682
     42 H14        15.4583    8.6577   27.1398 H           1 MOL       0.0813
     43 H15        18.2080    9.4414   24.0524 H           1 MOL       0.0801
     44 H16        21.0645    8.7595   29.0748 H           1 MOL       0.0545
     45 H17        18.7268   10.9807   26.3779 H           1 MOL       0.0544
     46 H18        17.7558    6.9578   27.2391 H           1 MOL       0.0532
     47 H19        19.6200    6.8419   28.7648 H           1 MOL       0.0590
     48 H20        21.0439   12.9551   28.8418 H           1 MOL       0.0577
     49 H21        20.1339   11.7988   29.8213 H           1 MOL       0.0577
     50 H22        19.3775   12.5728   28.4034 H           1 MOL       0.0577
@<TRIPOS>BOND
     1     2     1   2
     2     3     2   1
     3     2     6  am
     4     3     4   1
     5     3     9   1
     6    15     3   1
     7     4     5  ar
     8     5     6   1
     9     5     7  ar
    10     6     8   1
    11     9    10  ar
    12     9    14  ar
    13    10    11  ar
    14    11    12  ar
    15    13    12  ar
    16    14    13  ar
    17    15    16  ar
    18    20    15  ar
    19    17    16  ar
    20    18    17  ar
    21    19    18  ar
    22    19    20  ar
    23    23    19   1
    24    21    25  ar
    25    26    21  ar
    26    22    23  ar
    27    22    26  ar
    28    23    24  ar
    29    24    25  ar
    30    26    27   1
    31    27    28   1
    32     4    29   1
    33     7    30   1
    34     7    31   1
    35     8    32   1
    36     8    33   1
    37     8    34   1
    38    10    35   1
    39    11    36   1
    40    12    37   1
    41    13    38   1
    42    14    39   1
    43    16    40   1
    44    17    41   1
    45    18    42   1
    46    20    43   1
    47    21    44   1
    48    22    45   1
    49    24    46   1
    50    25    47   1
    51    28    48   1
    52    28    49   1
    53    28    50   1
@<TRIPOS>SUBSTRUCTURE
     1  MOL      2

