@<TRIPOS>MOLECULE
4djv_ligand_019
    50    53
SMALL
GAST_HUCK
****
This file was generated by PARSER (from files_GN.cpp)

@<TRIPOS>ATOM
      1 O1         17.3389   10.6568   25.5773 O.2         1 MOL      -0.3721
      2 C1         18.1313   10.3087   24.7105 C.2         1 MOL       0.1984
      3 C2         17.7478   10.0229   23.3185 C.3         1 MOL       0.1861
      4 N1         19.0146    9.5012   22.9076 N.pl3       1 MOL      -0.2773
      5 C3         19.9550    9.5702   23.8507 C.cat       1 MOL       0.3179
      6 N2         19.4117   10.1057   24.9576 N.am        1 MOL      -0.2211
      7 N3         21.2132    9.1290   23.7036 N.pl3       1 MOL      -0.2550
      8 C4         20.1157   10.3610   26.1820 C.3         1 MOL       0.0234
      9 C5         16.7255    8.9197   23.1187 C.ar        1 MOL      -0.0137
     10 C6         16.2750    8.5735   21.8121 C.ar        1 MOL      -0.0453
     11 C7         15.3490    7.5408   21.5848 C.ar        1 MOL      -0.0390
     12 C8         14.8582    6.7921   22.6646 C.ar        1 MOL      -0.0398
     13 C9         15.3082    7.0807   23.9646 C.ar        1 MOL      -0.0390
     14 C10        16.2267    8.1197   24.1821 C.ar        1 MOL      -0.0453
     15 C11        17.4284   11.2843   22.5323 C.ar        1 MOL      -0.0130
     16 C12        17.6753   11.3508   21.1356 C.ar        1 MOL      -0.0451
     17 C13        17.2831   12.4552   20.3610 C.ar        1 MOL      -0.0383
     18 C14        16.6958   13.5678   20.9760 C.ar        1 MOL      -0.0321
     19 C15        16.5768   13.6185   22.3788 C.ar        1 MOL       0.0021
     20 C16        16.9017   12.4639   23.1300 C.ar        1 MOL      -0.0377
     21 C17        15.9983   17.4616   24.0810 C.ar        1 MOL      -0.0329
     22 C18        17.3628   15.4729   23.7687 C.ar        1 MOL      -0.0254
     23 C19        16.3255   14.8564   23.0222 C.ar        1 MOL      -0.0214
     24 C20        15.1144   15.5603   22.8297 C.ar        1 MOL      -0.0645
     25 C21        14.9478   16.8503   23.3719 C.ar        1 MOL      -0.0697
     26 C22        17.2209   16.7872   24.2662 C.ar        1 MOL       0.0911
     27 O2         18.2035   17.4106   24.9972 O.3         1 MOL      -0.3214
     28 C23        19.5068   17.4869   24.3925 C.3         1 MOL       0.0593
     29 H1         19.1926    9.1573   22.0161 H           1 MOL       0.3068
     30 H2         21.4831    8.6835   22.8850 H           1 MOL       0.3199
     31 H3         21.8446    9.2116   24.4336 H           1 MOL       0.3199
     32 H4         19.4653   10.7667   26.9599 H           1 MOL       0.0484
     33 H5         20.9071   11.0872   25.9970 H           1 MOL       0.0484
     34 H6         20.5660    9.4436   26.5634 H           1 MOL       0.0484
     35 H7         16.6243    9.0698   20.9869 H           1 MOL       0.0795
     36 H8         15.0417    7.3181   20.6373 H           1 MOL       0.0681
     37 H9         14.2024    6.0283   22.5005 H           1 MOL       0.0806
     38 H10        14.9755    6.5143   24.7484 H           1 MOL       0.0681
     39 H11        16.5392    8.2626   25.1379 H           1 MOL       0.0795
     40 H12        18.1108   10.5646   20.6506 H           1 MOL       0.0796
     41 H13        17.4472   12.4627   19.3507 H           1 MOL       0.0682
     42 H14        16.4248   14.3693   20.4043 H           1 MOL       0.0813
     43 H15        16.7550   12.5125   24.1358 H           1 MOL       0.0801
     44 H16        15.8688   18.4044   24.4606 H           1 MOL       0.0545
     45 H17        18.2485   14.9801   23.9187 H           1 MOL       0.0544
     46 H18        14.3488   15.1365   22.2998 H           1 MOL       0.0532
     47 H19        14.0600   17.3463   23.2445 H           1 MOL       0.0590
     48 H20        20.1160   18.1610   24.9947 H           1 MOL       0.0577
     49 H21        19.4677   17.8827   23.3751 H           1 MOL       0.0577
     50 H22        19.9845   16.5042   24.3813 H           1 MOL       0.0577
@<TRIPOS>BOND
     1     2     1   2
     2     3     2   1
     3     2     6  am
     4     3     4   1
     5     3     9   1
     6    15     3   1
     7     4     5  ar
     8     5     6   1
     9     5     7  ar
    10     6     8   1
    11     9    10  ar
    12     9    14  ar
    13    10    11  ar
    14    11    12  ar
    15    13    12  ar
    16    14    13  ar
    17    15    16  ar
    18    20    15  ar
    19    17    16  ar
    20    18    17  ar
    21    19    18  ar
    22    19    20  ar
    23    23    19   1
    24    21    25  ar
    25    26    21  ar
    26    22    23  ar
    27    22    26  ar
    28    23    24  ar
    29    24    25  ar
    30    26    27   1
    31    27    28   1
    32     4    29   1
    33     7    30   1
    34     7    31   1
    35     8    32   1
    36     8    33   1
    37     8    34   1
    38    10    35   1
    39    11    36   1
    40    12    37   1
    41    13    38   1
    42    14    39   1
    43    16    40   1
    44    17    41   1
    45    18    42   1
    46    20    43   1
    47    21    44   1
    48    22    45   1
    49    24    46   1
    50    25    47   1
    51    28    48   1
    52    28    49   1
    53    28    50   1
@<TRIPOS>SUBSTRUCTURE
     1  MOL      2

