@<TRIPOS>MOLECULE
4g8m_ligand_001
    22    22
SMALL
GAST_HUCK
****
This file was generated by PARSER (from files_GN.cpp)

@<TRIPOS>ATOM
      1 CD          7.7274   25.4920   17.9500 C.2         1 G8M       0.0384
      2 OE1         6.5046   25.2093   17.4635 O.co2       1 G8M      -0.5687
      3 OE2         8.7784   25.1727   17.1526 O.co2       1 G8M      -0.5687
      4 CG          7.9708   25.6627   19.4015 C.3         1 G8M       0.0213
      5 C           4.4464   26.0425   21.1775 C.2         1 G8M       0.0848
      6 OXT         4.4656   26.9651   22.1638 O.co2       1 G8M      -0.5642
      7 O           3.5291   25.0408   21.2583 O.co2       1 G8M      -0.5642
      8 CA          5.3596   26.1297   20.0156 C.3         1 G8M       0.0330
      9 N           5.0308   27.3287   19.2332 N.4         1 G8M       0.2330
     10 CB          6.8584   26.0134   20.4329 C.3         1 G8M       0.0284
     11 C6          7.6224   27.3125   20.7951 C.3         1 G8M      -0.0399
     12 C7          8.7193   26.9570   19.7782 C.3         1 G8M      -0.0374
     13 H1          8.5380   24.7908   19.7415 H           1 G8M       0.0472
     14 H2          5.1431   25.2687   19.3816 H           1 G8M       0.1028
     15 H3          4.0295   27.3328   18.9968 H           1 G8M       0.2010
     16 H4          5.5763   27.3348   18.3689 H           1 G8M       0.2010
     17 H5          5.2413   28.1702   19.7724 H           1 G8M       0.2010
     18 H6          6.9409   25.3057   21.2664 H           1 G8M       0.0395
     19 H7          7.9835   27.3297   21.8256 H           1 G8M       0.0273
     20 H8          7.1161   28.2510   20.5314 H           1 G8M       0.0273
     21 H9          8.8017   27.6871   18.9690 H           1 G8M       0.0286
     22 H10         9.6839   26.7701   20.2585 H           1 G8M       0.0286
@<TRIPOS>BOND
     1     1     2  ar
     2     1     3  ar
     3     4     1   1
     4    10     4   1
     5     4    12   1
     6     5     6  ar
     7     5     7  ar
     8     8     5   1
     9     8     9   1
    10     8    10   1
    11    10    11   1
    12    11    12   1
    13     4    13   1
    14     8    14   1
    15     9    15   1
    16     9    16   1
    17     9    17   1
    18    10    18   1
    19    11    19   1
    20    11    20   1
    21    12    21   1
    22    12    22   1
@<TRIPOS>SUBSTRUCTURE
     1  G8M      1

