@<TRIPOS>MOLECULE
4g8m_ligand_023
    22    22
SMALL
GAST_HUCK
****
This file was generated by PARSER (from files_GN.cpp)

@<TRIPOS>ATOM
      1 CD          6.3068   28.5809   21.4583 C.2         1 G8M       0.0384
      2 OE1         5.7702   28.0100   20.3582 O.co2       1 G8M      -0.5687
      3 OE2         7.4064   29.3542   21.2851 O.co2       1 G8M      -0.5687
      4 CG          5.8403   28.2660   22.8282 C.3         1 G8M       0.0213
      5 C           7.6317   25.8739   21.6771 C.2         1 G8M       0.0848
      6 OXT         6.9165   24.8110   21.2432 O.co2       1 G8M      -0.5642
      7 O           8.4289   26.5024   20.7750 O.co2       1 G8M      -0.5642
      8 CA          7.6657   26.2264   23.1166 C.3         1 G8M       0.0330
      9 N           8.9463   26.8654   23.4501 N.4         1 G8M       0.2330
     10 CB          6.5099   27.1223   23.6508 C.3         1 G8M       0.0284
     11 C6          5.1447   26.4100   23.7737 C.3         1 G8M      -0.0399
     12 C7          4.4853   27.5287   22.9548 C.3         1 G8M      -0.0374
     13 H1          5.8062   29.1915   23.4084 H           1 G8M       0.0472
     14 H2          7.6455   25.2932   23.6799 H           1 G8M       0.1028
     15 H3          9.7159   26.2802   23.1278 H           1 G8M       0.2010
     16 H4          9.0270   26.9952   24.4623 H           1 G8M       0.2010
     17 H5          8.9984   27.7716   22.9788 H           1 G8M       0.2010
     18 H6          6.7881   27.5059   24.6412 H           1 G8M       0.0395
     19 H7          4.7683   26.3642   24.7994 H           1 G8M       0.0273
     20 H8          5.1022   25.4369   23.2713 H           1 G8M       0.0273
     21 H9          4.0699   27.1470   22.0236 H           1 G8M       0.0286
     22 H10         3.7505   28.1059   23.5325 H           1 G8M       0.0286
@<TRIPOS>BOND
     1     1     2  ar
     2     1     3  ar
     3     4     1   1
     4    10     4   1
     5     4    12   1
     6     5     6  ar
     7     5     7  ar
     8     8     5   1
     9     8     9   1
    10     8    10   1
    11    10    11   1
    12    11    12   1
    13     4    13   1
    14     8    14   1
    15     9    15   1
    16     9    16   1
    17     9    17   1
    18    10    18   1
    19    11    19   1
    20    11    20   1
    21    12    21   1
    22    12    22   1
@<TRIPOS>SUBSTRUCTURE
     1  G8M      1

