@<TRIPOS>MOLECULE
4g8m_ligand_019
    22    22
SMALL
GAST_HUCK
****
This file was generated by PARSER (from files_GN.cpp)

@<TRIPOS>ATOM
      1 CD          6.1776   27.9804   22.0161 C.2         1 G8M       0.0384
      2 OE1         5.6418   29.1802   22.3303 O.co2       1 G8M      -0.5687
      3 OE2         5.7972   26.9304   22.7795 O.co2       1 G8M      -0.5687
      4 CG          7.3839   27.9307   21.1526 C.3         1 G8M       0.0213
      5 C           6.1306   26.1858   17.8131 C.2         1 G8M       0.0848
      6 OXT         5.3158   26.6265   16.8330 O.co2       1 G8M      -0.5642
      7 O           6.9994   25.1951   17.4930 O.co2       1 G8M      -0.5642
      8 CA          5.9771   26.6749   19.2005 C.3         1 G8M       0.0330
      9 N           5.4143   25.5770   20.0022 N.4         1 G8M       0.2330
     10 CB          7.3179   27.2543   19.7514 C.3         1 G8M       0.0284
     11 C6          8.4070   26.2482   20.1950 C.3         1 G8M      -0.0399
     12 C7          8.4952   26.9362   21.5702 C.3         1 G8M      -0.0374
     13 H1          7.8023   28.9383   21.0645 H           1 G8M       0.0472
     14 H2          5.2429   27.4830   19.2030 H           1 G8M       0.1028
     15 H3          4.4870   25.3415   19.6430 H           1 G8M       0.2010
     16 H4          5.3257   25.8587   20.9780 H           1 G8M       0.2010
     17 H5          6.0184   24.7549   19.9367 H           1 G8M       0.2010
     18 H6          7.7402   27.9381   19.0059 H           1 G8M       0.0395
     19 H7          9.3321   26.3298   19.6173 H           1 G8M       0.0273
     20 H8          8.0643   25.2110   20.2717 H           1 G8M       0.0273
     21 H9          8.2327   26.2670   22.3942 H           1 G8M       0.0286
     22 H10         9.4630   27.4204   21.7367 H           1 G8M       0.0286
@<TRIPOS>BOND
     1     1     2  ar
     2     1     3  ar
     3     4     1   1
     4    10     4   1
     5     4    12   1
     6     5     6  ar
     7     5     7  ar
     8     8     5   1
     9     8     9   1
    10     8    10   1
    11    10    11   1
    12    11    12   1
    13     4    13   1
    14     8    14   1
    15     9    15   1
    16     9    16   1
    17     9    17   1
    18    10    18   1
    19    11    19   1
    20    11    20   1
    21    12    21   1
    22    12    22   1
@<TRIPOS>SUBSTRUCTURE
     1  G8M      1

