@<TRIPOS>MOLECULE
4g8m_ligand_005
    22    22
SMALL
GAST_HUCK
****
This file was generated by PARSER (from files_GN.cpp)

@<TRIPOS>ATOM
      1 CD          6.4685   28.8438   22.1537 C.2         1 G8M       0.0384
      2 OE1         5.4961   29.4466   22.8705 O.co2       1 G8M      -0.5687
      3 OE2         7.5079   29.6134   21.6933 O.co2       1 G8M      -0.5687
      4 CG          6.2009   27.5261   21.5446 C.3         1 G8M       0.0213
      5 C           6.3499   27.3415   24.7804 C.2         1 G8M       0.0848
      6 OXT         7.6654   27.2274   25.0913 O.co2       1 G8M      -0.5642
      7 O           5.7541   28.5451   24.9610 O.co2       1 G8M      -0.5642
      8 CA          5.6904   26.2680   23.9960 C.3         1 G8M       0.0330
      9 N           4.2532   26.2223   24.3208 N.4         1 G8M       0.2330
     10 CB          5.9069   26.2824   22.4453 C.3         1 G8M       0.0284
     11 C6          7.2220   25.6357   21.9444 C.3         1 G8M      -0.0399
     12 C7          7.4334   26.7956   20.9641 C.3         1 G8M      -0.0374
     13 H1          5.4260   27.6422   20.7793 H           1 G8M       0.0472
     14 H2          6.0814   25.3210   24.3701 H           1 G8M       0.1028
     15 H3          4.1271   26.0793   25.3287 H           1 G8M       0.2010
     16 H4          3.8220   25.4335   23.8263 H           1 G8M       0.2010
     17 H5          3.8002   27.0892   24.0268 H           1 G8M       0.2010
     18 H6          5.0761   25.7118   21.9844 H           1 G8M       0.0395
     19 H7          7.0850   24.6769   21.4423 H           1 G8M       0.0273
     20 H8          7.9960   25.6006   22.7077 H           1 G8M       0.0273
     21 H9          8.4010   27.2845   21.1098 H           1 G8M       0.0286
     22 H10         7.2912   26.4936   19.9167 H           1 G8M       0.0286
@<TRIPOS>BOND
     1     1     2  ar
     2     1     3  ar
     3     4     1   1
     4    10     4   1
     5     4    12   1
     6     5     6  ar
     7     5     7  ar
     8     8     5   1
     9     8     9   1
    10     8    10   1
    11    10    11   1
    12    11    12   1
    13     4    13   1
    14     8    14   1
    15     9    15   1
    16     9    16   1
    17     9    17   1
    18    10    18   1
    19    11    19   1
    20    11    20   1
    21    12    21   1
    22    12    22   1
@<TRIPOS>SUBSTRUCTURE
     1  G8M      1

