@<TRIPOS>MOLECULE
4g8m_ligand_002
    22    22
SMALL
GAST_HUCK
****
This file was generated by PARSER (from files_GN.cpp)

@<TRIPOS>ATOM
      1 CD          6.5316   25.5995   19.8615 C.2         1 G8M       0.0384
      2 OE1         5.8068   24.5620   20.3455 O.co2       1 G8M      -0.5687
      3 OE2         6.6375   25.7249   18.5213 O.co2       1 G8M      -0.5687
      4 CG          7.3934   26.3786   20.7759 C.3         1 G8M       0.0213
      5 C           4.9402   27.2672   23.8254 C.2         1 G8M       0.0848
      6 OXT         3.7632   26.9641   24.4088 O.co2       1 G8M      -0.5642
      7 O           5.5288   28.4274   24.2079 O.co2       1 G8M      -0.5642
      8 CA          5.4060   26.4690   22.6624 C.3         1 G8M       0.0330
      9 N           4.3775   26.5499   21.6165 N.4         1 G8M       0.2330
     10 CB          6.8483   26.8487   22.1636 C.3         1 G8M       0.0284
     11 C6          7.0978   28.3148   21.7343 C.3         1 G8M      -0.0399
     12 C7          7.6137   27.8514   20.3639 C.3         1 G8M      -0.0374
     13 H1          8.3463   25.8593   20.8982 H           1 G8M       0.0472
     14 H2          5.4471   25.4323   22.9923 H           1 G8M       0.1028
     15 H3          3.4926   26.2208   21.9965 H           1 G8M       0.2010
     16 H4          4.6443   25.9729   20.8215 H           1 G8M       0.2010
     17 H5          4.2786   27.5197   21.3181 H           1 G8M       0.2010
     18 H6          7.5663   26.5636   22.9385 H           1 G8M       0.0395
     19 H7          7.8725   28.8101   22.3275 H           1 G8M       0.0273
     20 H8          6.1911   28.9301   21.6545 H           1 G8M       0.0273
     21 H9          6.9731   28.1953   19.5469 H           1 G8M       0.0286
     22 H10         8.6640   28.0881   20.1869 H           1 G8M       0.0286
@<TRIPOS>BOND
     1     1     2  ar
     2     1     3  ar
     3     4     1   1
     4    10     4   1
     5     4    12   1
     6     5     6  ar
     7     5     7  ar
     8     8     5   1
     9     8     9   1
    10     8    10   1
    11    10    11   1
    12    11    12   1
    13     4    13   1
    14     8    14   1
    15     9    15   1
    16     9    16   1
    17     9    17   1
    18    10    18   1
    19    11    19   1
    20    11    20   1
    21    12    21   1
    22    12    22   1
@<TRIPOS>SUBSTRUCTURE
     1  G8M      1

