@<TRIPOS>MOLECULE
4g8m_ligand_025
    22    22
SMALL
GAST_HUCK
****
This file was generated by PARSER (from files_GN.cpp)

@<TRIPOS>ATOM
      1 CD          9.0820   26.8596   19.2384 C.2         1 G8M       0.0384
      2 OE1         8.9146   25.7830   18.4409 O.co2       1 G8M      -0.5687
      3 OE2        10.1229   27.6690   18.9456 O.co2       1 G8M      -0.5687
      4 CG          8.4617   26.8683   20.5837 C.3         1 G8M       0.0213
      5 C           5.8725   25.8135   18.8396 C.2         1 G8M       0.0848
      6 OXT         6.0851   25.6432   17.5151 O.co2       1 G8M      -0.5642
      7 O           5.4196   24.7701   19.5709 O.co2       1 G8M      -0.5642
      8 CA          6.0238   27.1462   19.4421 C.3         1 G8M       0.0330
      9 N           4.6876   27.6253   19.8128 N.4         1 G8M       0.2330
     10 CB          6.9285   27.0983   20.7063 C.3         1 G8M       0.0284
     11 C6          7.1844   28.4481   21.4153 C.3         1 G8M      -0.0399
     12 C7          8.6889   28.1345   21.4433 C.3         1 G8M      -0.0374
     13 H1          8.7596   25.9669   21.1255 H           1 G8M       0.0472
     14 H2          6.4453   27.8406   18.7147 H           1 G8M       0.1028
     15 H3          4.0534   27.6076   19.0106 H           1 G8M       0.2010
     16 H4          4.7714   28.5835   20.1508 H           1 G8M       0.2010
     17 H5          4.3028   27.0346   20.5551 H           1 G8M       0.2010
     18 H6          6.5114   26.3899   21.4341 H           1 G8M       0.0395
     19 H7          6.7356   28.5116   22.4112 H           1 G8M       0.0273
     20 H8          6.9499   29.3221   20.7999 H           1 G8M       0.0273
     21 H9          9.2942   28.9180   20.9847 H           1 G8M       0.0286
     22 H10         9.0383   27.8833   22.4480 H           1 G8M       0.0286
@<TRIPOS>BOND
     1     1     2  ar
     2     1     3  ar
     3     4     1   1
     4    10     4   1
     5     4    12   1
     6     5     6  ar
     7     5     7  ar
     8     8     5   1
     9     8     9   1
    10     8    10   1
    11    10    11   1
    12    11    12   1
    13     4    13   1
    14     8    14   1
    15     9    15   1
    16     9    16   1
    17     9    17   1
    18    10    18   1
    19    11    19   1
    20    11    20   1
    21    12    21   1
    22    12    22   1
@<TRIPOS>SUBSTRUCTURE
     1  G8M      1

