@<TRIPOS>MOLECULE
4g8m_ligand_017
    22    22
SMALL
GAST_HUCK
****
This file was generated by PARSER (from files_GN.cpp)

@<TRIPOS>ATOM
      1 CD          5.7071   27.5619   21.7568 C.2         1 G8M       0.0384
      2 OE1         6.0319   28.8408   21.4576 O.co2       1 G8M      -0.5687
      3 OE2         4.9351   27.3258   22.8376 O.co2       1 G8M      -0.5687
      4 CG          6.2505   26.4239   20.9856 C.3         1 G8M       0.0213
      5 C           8.4677   28.3290   21.9564 C.2         1 G8M       0.0848
      6 OXT         8.2123   27.5461   23.0297 O.co2       1 G8M      -0.5642
      7 O           8.5039   29.6707   22.1283 O.co2       1 G8M      -0.5642
      8 CA          8.5696   27.7674   20.5975 C.3         1 G8M       0.0330
      9 N           9.9860   27.4736   20.3452 N.4         1 G8M       0.2330
     10 CB          7.6849   26.5015   20.3820 C.3         1 G8M       0.0284
     11 C6          7.0613   26.3518   18.9643 C.3         1 G8M      -0.0399
     12 C7          5.6479   26.2644   19.5730 C.3         1 G8M      -0.0374
     13 H1          6.1304   25.4966   21.5567 H           1 G8M       0.0472
     14 H2          8.2831   28.5362   19.8825 H           1 G8M       0.1028
     15 H3         10.5427   28.3134   20.5168 H           1 G8M       0.2010
     16 H4         10.1296   27.1889   19.3754 H           1 G8M       0.2010
     17 H5         10.3001   26.7261   20.9668 H           1 G8M       0.2010
     18 H6          8.2494   25.5974   20.6385 H           1 G8M       0.0395
     19 H7          7.3674   25.4316   18.4559 H           1 G8M       0.0273
     20 H8          7.1823   27.2337   18.3280 H           1 G8M       0.0273
     21 H9          4.9944   27.0813   19.2504 H           1 G8M       0.0286
     22 H10         5.1787   25.2898   19.4410 H           1 G8M       0.0286
@<TRIPOS>BOND
     1     1     2  ar
     2     1     3  ar
     3     4     1   1
     4    10     4   1
     5     4    12   1
     6     5     6  ar
     7     5     7  ar
     8     8     5   1
     9     8     9   1
    10     8    10   1
    11    10    11   1
    12    11    12   1
    13     4    13   1
    14     8    14   1
    15     9    15   1
    16     9    16   1
    17     9    17   1
    18    10    18   1
    19    11    19   1
    20    11    20   1
    21    12    21   1
    22    12    22   1
@<TRIPOS>SUBSTRUCTURE
     1  G8M      1

