@<TRIPOS>MOLECULE
4g8m_ligand_007
    22    22
SMALL
GAST_HUCK
****
This file was generated by PARSER (from files_GN.cpp)

@<TRIPOS>ATOM
      1 CD          6.8838   28.0353   24.4157 C.2         1 G8M       0.0384
      2 OE1         5.8086   28.6312   24.9800 O.co2       1 G8M      -0.5687
      3 OE2         7.4621   27.0469   25.1301 O.co2       1 G8M      -0.5687
      4 CG          7.0360   28.0960   22.9417 C.3         1 G8M       0.0213
      5 C           4.1916   25.6183   21.5464 C.2         1 G8M       0.0848
      6 OXT         2.9548   25.1167   21.7845 O.co2       1 G8M      -0.5642
      7 O           4.8747   25.0802   20.5165 O.co2       1 G8M      -0.5642
      8 CA          4.8421   26.4851   22.5638 C.3         1 G8M       0.0330
      9 N           5.1121   25.6587   23.7552 N.4         1 G8M       0.2330
     10 CB          6.0745   27.2835   22.0172 C.3         1 G8M       0.0284
     11 C6          7.2844   26.4717   21.4937 C.3         1 G8M      -0.0399
     12 C7          8.2417   27.3275   22.3389 C.3         1 G8M      -0.0374
     13 H1          7.0687   29.1475   22.6418 H           1 G8M       0.0472
     14 H2          4.1065   27.2321   22.8662 H           1 G8M       0.1028
     15 H3          4.2702   25.1255   24.0050 H           1 G8M       0.2010
     16 H4          5.3528   26.2561   24.5480 H           1 G8M       0.2010
     17 H5          5.8836   25.0126   23.5687 H           1 G8M       0.2010
     18 H6          5.7205   27.9410   21.2129 H           1 G8M       0.0395
     19 H7          7.4479   26.5825   20.4179 H           1 G8M       0.0273
     20 H8          7.2894   25.4222   21.8036 H           1 G8M       0.0273
     21 H9          8.8306   26.7192   23.0347 H           1 G8M       0.0286
     22 H10         8.8847   27.9673   21.7235 H           1 G8M       0.0286
@<TRIPOS>BOND
     1     1     2  ar
     2     1     3  ar
     3     4     1   1
     4    10     4   1
     5     4    12   1
     6     5     6  ar
     7     5     7  ar
     8     8     5   1
     9     8     9   1
    10     8    10   1
    11    10    11   1
    12    11    12   1
    13     4    13   1
    14     8    14   1
    15     9    15   1
    16     9    16   1
    17     9    17   1
    18    10    18   1
    19    11    19   1
    20    11    20   1
    21    12    21   1
    22    12    22   1
@<TRIPOS>SUBSTRUCTURE
     1  G8M      1

