@<TRIPOS>MOLECULE
4g8m_ligand_009
    22    22
SMALL
GAST_HUCK
****
This file was generated by PARSER (from files_GN.cpp)

@<TRIPOS>ATOM
      1 CD          4.0605   26.2316   21.4596 C.2         1 G8M       0.0384
      2 OE1         4.2030   24.9423   21.0962 O.co2       1 G8M      -0.5687
      3 OE2         2.8266   26.7799   21.3423 O.co2       1 G8M      -0.5687
      4 CG          5.1924   27.0714   21.9024 C.3         1 G8M       0.0213
      5 C           6.0323   25.8569   18.8869 C.2         1 G8M       0.0848
      6 OXT         5.7195   24.8191   19.7264 O.co2       1 G8M      -0.5642
      7 O           6.2923   25.5693   17.5841 O.co2       1 G8M      -0.5642
      8 CA          6.0481   27.2772   19.3015 C.3         1 G8M       0.0330
      9 N           4.8713   27.9307   18.6997 N.4         1 G8M       0.2330
     10 CB          6.1668   27.6315   20.8208 C.3         1 G8M       0.0284
     11 C6          7.3620   26.9781   21.5594 C.3         1 G8M      -0.0399
     12 C7          6.3970   26.4010   22.6137 C.3         1 G8M      -0.0374
     13 H1          4.8128   27.8783   22.5424 H           1 G8M       0.0472
     14 H2          6.9296   27.7096   18.8308 H           1 G8M       0.1028
     15 H3          4.9096   27.8108   17.6807 H           1 G8M       0.2010
     16 H4          4.8766   28.9222   18.9264 H           1 G8M       0.2010
     17 H5          3.9944   27.5136   19.0358 H           1 G8M       0.2010
     18 H6          6.2378   28.7191   20.9196 H           1 G8M       0.0395
     19 H7          8.0612   27.7090   21.9821 H           1 G8M       0.0273
     20 H8          7.8942   26.2102   20.9999 H           1 G8M       0.0273
     21 H9          6.3921   25.3153   22.6110 H           1 G8M       0.0286
     22 H10         6.5852   26.7969   23.6132 H           1 G8M       0.0286
@<TRIPOS>BOND
     1     1     2  ar
     2     1     3  ar
     3     4     1   1
     4    10     4   1
     5     4    12   1
     6     5     6  ar
     7     5     7  ar
     8     8     5   1
     9     8     9   1
    10     8    10   1
    11    10    11   1
    12    11    12   1
    13     4    13   1
    14     8    14   1
    15     9    15   1
    16     9    16   1
    17     9    17   1
    18    10    18   1
    19    11    19   1
    20    11    20   1
    21    12    21   1
    22    12    22   1
@<TRIPOS>SUBSTRUCTURE
     1  G8M      1

