@<TRIPOS>MOLECULE
4g8m_ligand_022
    22    22
SMALL
GAST_HUCK
****
This file was generated by PARSER (from files_GN.cpp)

@<TRIPOS>ATOM
      1 CD          5.5844   27.7895   21.0656 C.2         1 G8M       0.0384
      2 OE1         6.1766   28.9888   20.8646 O.co2       1 G8M      -0.5687
      3 OE2         5.2736   27.0507   19.9781 O.co2       1 G8M      -0.5687
      4 CG          5.1659   27.4141   22.4359 C.3         1 G8M       0.0213
      5 C           8.2850   27.7481   22.0827 C.2         1 G8M       0.0848
      6 OXT         8.6310   28.9030   21.4772 O.co2       1 G8M      -0.5642
      7 O           8.4179   26.6010   21.3743 O.co2       1 G8M      -0.5642
      8 CA          7.7241   27.7182   23.4543 C.3         1 G8M       0.0330
      9 N           7.9531   29.0072   24.1340 N.4         1 G8M       0.2330
     10 CB          6.2173   27.3214   23.5850 C.3         1 G8M       0.0284
     11 C6          5.9249   25.8095   23.7080 C.3         1 G8M      -0.0399
     12 C7          4.8087   25.9234   22.6633 C.3         1 G8M      -0.0374
     13 H1          4.3292   28.0476   22.7358 H           1 G8M       0.0472
     14 H2          8.3143   26.9905   24.0117 H           1 G8M       0.1028
     15 H3          8.9390   29.2708   24.0646 H           1 G8M       0.2010
     16 H4          7.7071   28.9171   25.1232 H           1 G8M       0.2010
     17 H5          7.3797   29.7357   23.7046 H           1 G8M       0.2010
     18 H6          5.8052   27.8143   24.4758 H           1 G8M       0.0395
     19 H7          5.5674   25.5215   24.6988 H           1 G8M       0.0273
     20 H8          6.7430   25.1638   23.3693 H           1 G8M       0.0273
     21 H9          4.9565   25.2572   21.8088 H           1 G8M       0.0286
     22 H10         3.8128   25.7893   23.1022 H           1 G8M       0.0286
@<TRIPOS>BOND
     1     1     2  ar
     2     1     3  ar
     3     4     1   1
     4    10     4   1
     5     4    12   1
     6     5     6  ar
     7     5     7  ar
     8     8     5   1
     9     8     9   1
    10     8    10   1
    11    10    11   1
    12    11    12   1
    13     4    13   1
    14     8    14   1
    15     9    15   1
    16     9    16   1
    17     9    17   1
    18    10    18   1
    19    11    19   1
    20    11    20   1
    21    12    21   1
    22    12    22   1
@<TRIPOS>SUBSTRUCTURE
     1  G8M      1

