@<TRIPOS>MOLECULE
4g8m_ligand_024
    22    22
SMALL
GAST_HUCK
****
This file was generated by PARSER (from files_GN.cpp)

@<TRIPOS>ATOM
      1 CD          6.7537   28.1769   22.5722 C.2         1 G8M       0.0384
      2 OE1         7.6285   27.6518   23.4690 O.co2       1 G8M      -0.5687
      3 OE2         5.5772   28.6446   23.0413 O.co2       1 G8M      -0.5687
      4 CG          7.0708   28.3003   21.1337 C.3         1 G8M       0.0213
      5 C           5.7656   25.5347   21.7978 C.2         1 G8M       0.0848
      6 OXT         4.9760   25.6488   22.8941 O.co2       1 G8M      -0.5642
      7 O           6.9214   24.8538   21.9382 O.co2       1 G8M      -0.5642
      8 CA          5.4254   26.1959   20.5204 C.3         1 G8M       0.0330
      9 N           4.0405   26.6984   20.5630 N.4         1 G8M       0.2330
     10 CB          6.3878   27.3589   20.1004 C.3         1 G8M       0.0284
     11 C6          7.7846   26.9332   19.5880 C.3         1 G8M      -0.0399
     12 C7          8.4598   27.8100   20.6570 C.3         1 G8M      -0.0374
     13 H1          6.9265   29.3421   20.8464 H           1 G8M       0.0472
     14 H2          5.4473   25.4313   19.7394 H           1 G8M       0.1028
     15 H3          3.4009   25.9336   20.7986 H           1 G8M       0.2010
     16 H4          3.7610   27.0866   19.6573 H           1 G8M       0.2010
     17 H5          3.9752   27.4204   21.2823 H           1 G8M       0.2010
     18 H6          5.8938   27.9505   19.3232 H           1 G8M       0.0395
     19 H7          7.9854   27.2845   18.5688 H           1 G8M       0.0273
     20 H8          8.0257   25.8731   19.6944 H           1 G8M       0.0273
     21 H9          9.0180   27.2141   21.3861 H           1 G8M       0.0286
     22 H10         9.0795   28.6016   20.2262 H           1 G8M       0.0286
@<TRIPOS>BOND
     1     1     2  ar
     2     1     3  ar
     3     4     1   1
     4    10     4   1
     5     4    12   1
     6     5     6  ar
     7     5     7  ar
     8     8     5   1
     9     8     9   1
    10     8    10   1
    11    10    11   1
    12    11    12   1
    13     4    13   1
    14     8    14   1
    15     9    15   1
    16     9    16   1
    17     9    17   1
    18    10    18   1
    19    11    19   1
    20    11    20   1
    21    12    21   1
    22    12    22   1
@<TRIPOS>SUBSTRUCTURE
     1  G8M      1

