@<TRIPOS>MOLECULE
4g8m_ligand_008
    22    22
SMALL
GAST_HUCK
****
This file was generated by PARSER (from files_GN.cpp)

@<TRIPOS>ATOM
      1 CD          7.4249   25.2675   17.5309 C.2         1 G8M       0.0384
      2 OE1         6.6830   24.3048   16.9937 O.co2       1 G8M      -0.5687
      3 OE2         8.5804   25.5942   16.8815 O.co2       1 G8M      -0.5687
      4 CG          6.8575   26.1782   18.5421 C.3         1 G8M       0.0213
      5 C           9.9976   27.6568   20.5148 C.2         1 G8M       0.0848
      6 OXT        11.2543   27.3648   20.8907 O.co2       1 G8M      -0.5642
      7 O           9.4297   28.7715   21.0500 O.co2       1 G8M      -0.5642
      8 CA          9.3512   26.9838   19.3680 C.3         1 G8M       0.0330
      9 N           9.9380   25.6397   19.1869 N.4         1 G8M       0.2330
     10 CB          7.7887   26.9985   19.4776 C.3         1 G8M       0.0284
     11 C6          7.1713   26.3016   20.7060 C.3         1 G8M      -0.0399
     12 C7          6.2755   25.4543   19.7911 C.3         1 G8M      -0.0374
     13 H1          6.0984   26.8124   18.0759 H           1 G8M       0.0472
     14 H2          9.6161   27.5486   18.4779 H           1 G8M       0.1028
     15 H3         10.9253   25.7418   18.9551 H           1 G8M       0.2010
     16 H4          9.4738   25.1514   18.4249 H           1 G8M       0.2010
     17 H5          9.8435   25.0821   20.0313 H           1 G8M       0.2010
     18 H6          7.4543   28.0481   19.4367 H           1 G8M       0.0395
     19 H7          6.6051   26.9805   21.3434 H           1 G8M       0.0273
     20 H8          7.8768   25.6933   21.2827 H           1 G8M       0.0273
     21 H9          6.5082   24.3943   19.8584 H           1 G8M       0.0286
     22 H10         5.2078   25.6464   19.9269 H           1 G8M       0.0286
@<TRIPOS>BOND
     1     1     2  ar
     2     1     3  ar
     3     4     1   1
     4    10     4   1
     5     4    12   1
     6     5     6  ar
     7     5     7  ar
     8     8     5   1
     9     8     9   1
    10     8    10   1
    11    10    11   1
    12    11    12   1
    13     4    13   1
    14     8    14   1
    15     9    15   1
    16     9    16   1
    17     9    17   1
    18    10    18   1
    19    11    19   1
    20    11    20   1
    21    12    21   1
    22    12    22   1
@<TRIPOS>SUBSTRUCTURE
     1  G8M      1

