@<TRIPOS>MOLECULE
4g8m_ligand_021
    22    22
SMALL
GAST_HUCK
****
This file was generated by PARSER (from files_GN.cpp)

@<TRIPOS>ATOM
      1 CD          6.9950   25.1786   21.2336 C.2         1 G8M       0.0384
      2 OE1         8.2521   25.5793   20.9128 O.co2       1 G8M      -0.5687
      3 OE2         6.4964   24.1156   20.5683 O.co2       1 G8M      -0.5687
      4 CG          6.0850   26.0282   22.0254 C.3         1 G8M       0.0213
      5 C           7.2311   27.7648   19.4688 C.2         1 G8M       0.0848
      6 OXT         8.2118   28.4615   20.0793 O.co2       1 G8M      -0.5642
      7 O           7.5789   26.9967   18.4217 O.co2       1 G8M      -0.5642
      8 CA          5.8253   27.8411   19.9596 C.3         1 G8M       0.0330
      9 N           4.9272   27.1301   19.0332 N.4         1 G8M       0.2330
     10 CB          5.5545   27.3567   21.4286 C.3         1 G8M       0.0284
     11 C6          6.2418   28.1313   22.5778 C.3         1 G8M      -0.0399
     12 C7          6.7191   26.8050   23.1997 C.3         1 G8M      -0.0374
     13 H1          5.2510   25.4157   22.4014 H           1 G8M       0.0472
     14 H2          5.5430   28.8838   19.9030 H           1 G8M       0.1028
     15 H3          5.1374   27.4085   18.0709 H           1 G8M       0.2010
     16 H4          3.9511   27.3728   19.2333 H           1 G8M       0.2010
     17 H5          5.0454   26.1223   19.1278 H           1 G8M       0.2010
     18 H6          4.4733   27.3940   21.5977 H           1 G8M       0.0395
     19 H7          5.5364   28.6704   23.2222 H           1 G8M       0.0273
     20 H8          7.0701   28.7781   22.2845 H           1 G8M       0.0273
     21 H9          7.8152   26.7366   23.2762 H           1 G8M       0.0286
     22 H10         6.2438   26.6057   24.1637 H           1 G8M       0.0286
@<TRIPOS>BOND
     1     1     2  ar
     2     1     3  ar
     3     4     1   1
     4    10     4   1
     5     4    12   1
     6     5     6  ar
     7     5     7  ar
     8     8     5   1
     9     8     9   1
    10     8    10   1
    11    10    11   1
    12    11    12   1
    13     4    13   1
    14     8    14   1
    15     9    15   1
    16     9    16   1
    17     9    17   1
    18    10    18   1
    19    11    19   1
    20    11    20   1
    21    12    21   1
    22    12    22   1
@<TRIPOS>SUBSTRUCTURE
     1  G8M      1

