@<TRIPOS>MOLECULE
4gid_ligand_039
    95    97
SMALL
GAST_HUCK
****
This file was generated by PARSER (from files_GN.cpp)

@<TRIPOS>ATOM
      1 CBK        38.1719   -2.0575   14.5305 C.3         1 MOL      -0.0608
      2 CBL        39.3230   -3.0889   14.3827 C.3         1 MOL      -0.0265
      3 CBM        38.9292   -4.2202   13.3888 C.3         1 MOL      -0.0608
      4 CBN        40.6921   -2.4208   14.0466 C.3         1 MOL       0.0334
      5 NBO        41.0284   -2.4373   12.6491 N.am        1 MOL      -0.2820
      6 CBP        41.7976   -3.3407   12.0384 C.2         1 MOL       0.2271
      7 OBV        42.3834   -4.1922   12.7046 O.2         1 MOL      -0.3908
      8 CBG        42.0676   -3.2719   10.6018 C.3         1 MOL       0.0928
      9 CBH        42.0406   -4.6706    9.8987 C.3         1 MOL       0.1121
     10 CBJ        42.0771   -4.6108    8.3526 C.3         1 MOL      -0.0314
     11 OBI        43.1275   -5.4938   10.3387 O.3         1 MOL      -0.3840
     12 NBF        43.2896   -2.4803   10.2520 N.4         1 MOL       0.2497
     13 CAX        44.3721   -2.3408   11.2612 C.3         1 MOL      -0.0062
     14 CAW        45.4997   -1.3553   10.8391 C.3         1 MOL       0.0906
     15 CAY        46.1793   -1.6300    9.4539 C.3         1 MOL       0.0089
     16 CAZ        47.3463   -2.5638    9.3300 C.ar        1 MOL      -0.0406
     17 CBA        47.4119   -3.7893   10.0309 C.ar        1 MOL      -0.0603
     18 CBB        48.4848   -4.6800    9.8426 C.ar        1 MOL      -0.0686
     19 CBC        49.5119   -4.3638    8.9407 C.ar        1 MOL      -0.0687
     20 CBD        49.4661   -3.1529    8.2288 C.ar        1 MOL      -0.0686
     21 CBE        48.3949   -2.2635    8.4216 C.ar        1 MOL      -0.0603
     22 NAV        46.4800   -1.3318   11.8781 N.am        1 MOL      -0.2761
     23 CAT        46.8104   -0.2960   12.6404 C.2         1 MOL       0.2026
     24 OAU        46.2544    0.8003   12.5393 O.2         1 MOL      -0.3847
     25 CAP        47.8846   -0.4126   13.4861 C.ar        1 MOL       0.0397
     26 CAQ        49.0497    0.3382   13.2271 C.ar        1 MOL      -0.0393
     27 CAO        47.8834   -1.3324   14.5601 C.ar        1 MOL      -0.0214
     28 CAN        49.0142   -1.4579   15.4008 C.ar        1 MOL       0.0754
     29 NAE        48.9870   -2.3177   16.4640 N.am        1 MOL      -0.1796
     30 CBT        48.6942   -3.7133   16.2991 C.3         1 MOL       0.0445
     31 SAB        49.2373   -1.7270   18.0327 S.o2        1 MOL       0.0593
     32 OAC        49.3897   -0.1444   18.0142 O.2         1 MOL      -0.1500
     33 OAD        47.9472   -1.9878   18.9268 O.2         1 MOL      -0.1500
     34 CAA        50.7091   -2.3733   18.8524 C.3         1 MOL       0.0790
     35 CAS        50.1729   -0.7071   15.1050 C.ar        1 MOL      -0.0214
     36 CAR        50.2331    0.1717   13.9941 C.ar        1 MOL       0.0398
     37 CAL        51.4125    0.8249   13.6353 C.2         1 MOL       0.2041
     38 OAM        52.2403    1.1081   14.5007 O.2         1 MOL      -0.3845
     39 NBQ        51.6852    1.1259   12.3605 N.am        1 MOL      -0.2723
     40 CBR        52.8643    1.7568   11.8536 C.3         1 MOL       0.0723
     41 CBS        52.5428    2.4255   10.4895 C.3         1 MOL      -0.0320
     42 CAI        53.9987    0.7882   11.7254 C.ar        1 MOL      -0.0183
     43 CAH        53.8805   -0.3690   10.9179 C.ar        1 MOL      -0.0582
     44 CAG        54.9610   -1.2582   10.7672 C.ar        1 MOL      -0.0685
     45 CAF        56.1737   -1.0083   11.4350 C.ar        1 MOL      -0.0687
     46 CAK        56.3008    0.1251   12.2559 C.ar        1 MOL      -0.0685
     47 CAJ        55.2215    1.0142   12.4034 C.ar        1 MOL      -0.0582
     48 H1         37.2427   -2.5626   14.8121 H           1 MOL       0.0233
     49 H2         38.0092   -1.5200   13.5927 H           1 MOL       0.0233
     50 H3         38.4105   -1.3349   15.3168 H           1 MOL       0.0233
     51 H4         39.4297   -3.5620   15.3664 H           1 MOL       0.0315
     52 H5         39.7330   -4.9540   13.3117 H           1 MOL       0.0233
     53 H6         38.7306   -3.8128   12.3947 H           1 MOL       0.0233
     54 H7         38.0290   -4.7337   13.7366 H           1 MOL       0.0233
     55 H8         41.4610   -2.9196   14.6373 H           1 MOL       0.0522
     56 H9         40.6980   -1.3825   14.3821 H           1 MOL       0.0522
     57 H10        40.6497   -1.7355   12.0938 H           1 MOL       0.1853
     58 H11        41.2350   -2.7179   10.1566 H           1 MOL       0.1125
     59 H12        41.1141   -5.1772   10.1828 H           1 MOL       0.0674
     60 H13        41.8939   -5.6059    7.9387 H           1 MOL       0.0258
     61 H14        43.0536   -4.2713    8.0024 H           1 MOL       0.0258
     62 H15        41.3091   -3.9337    7.9685 H           1 MOL       0.0258
     63 H16        42.9350   -6.3892    9.9716 H           1 MOL       0.2102
     64 H17        42.9851   -1.5457    9.9650 H           1 MOL       0.2037
     65 H18        43.7038   -2.9141    9.4276 H           1 MOL       0.2037
     66 H19        44.7882   -3.3196   11.4781 H           1 MOL       0.0839
     67 H20        43.9219   -1.9468   12.1808 H           1 MOL       0.0839
     68 H21        45.0025   -0.3830   10.7515 H           1 MOL       0.0632
     69 H22        46.4970   -0.6472    9.0931 H           1 MOL       0.0450
     70 H23        45.4194   -1.9710    8.7530 H           1 MOL       0.0450
     71 H24        46.6838   -4.0541   10.6865 H           1 MOL       0.0557
     72 H25        48.5110   -5.5645   10.3556 H           1 MOL       0.0599
     73 H26        50.2870   -5.0171    8.7939 H           1 MOL       0.0559
     74 H27        50.2057   -2.9269    7.5602 H           1 MOL       0.0599
     75 H28        48.3745   -1.4029    7.8723 H           1 MOL       0.0557
     76 H29        46.9798   -2.1555   12.0230 H           1 MOL       0.1852
     77 H30        49.0330    0.9952   12.4448 H           1 MOL       0.0576
     78 H31        47.0467   -1.8951   14.7470 H           1 MOL       0.0566
     79 H32        48.5698   -3.9952   15.2507 H           1 MOL       0.0517
     80 H33        47.7756   -3.9691   16.8284 H           1 MOL       0.0517
     81 H34        49.5111   -4.3119   16.7040 H           1 MOL       0.0517
     82 H35        50.8153   -1.9142   19.8373 H           1 MOL       0.0487
     83 H36        51.5888   -2.1444   18.2482 H           1 MOL       0.0487
     84 H37        50.6194   -3.4551   18.9685 H           1 MOL       0.0487
     85 H38        50.9973   -0.8399   15.6975 H           1 MOL       0.0566
     86 H39        51.0136    0.8909   11.6970 H           1 MOL       0.1875
     87 H40        53.1259    2.5718   12.5380 H           1 MOL       0.0716
     88 H41        53.4335    2.9107   10.0857 H           1 MOL       0.0274
     89 H42        51.7695    3.1858   10.6188 H           1 MOL       0.0274
     90 H43        52.1834    1.6918    9.7654 H           1 MOL       0.0274
     91 H44        53.0062   -0.5723   10.4290 H           1 MOL       0.0557
     92 H45        54.8675   -2.0833   10.1724 H           1 MOL       0.0599
     93 H46        56.9632   -1.6481   11.3165 H           1 MOL       0.0559
     94 H47        57.1828    0.3054   12.7429 H           1 MOL       0.0599
     95 H48        55.3393    1.8349   13.0020 H           1 MOL       0.0557
@<TRIPOS>BOND
     1     1     2   1
     2     2     3   1
     3     2     4   1
     4     4     5   1
     5     5     6  am
     6     6     7   2
     7     6     8   1
     8     8     9   1
     9     8    12   1
    10     9    10   1
    11     9    11   1
    12    12    13   1
    13    13    14   1
    14    14    15   1
    15    14    22   1
    16    15    16   1
    17    16    17  ar
    18    16    21  ar
    19    17    18  ar
    20    18    19  ar
    21    19    20  ar
    22    20    21  ar
    23    22    23  am
    24    23    24   2
    25    23    25   1
    26    25    26  ar
    27    25    27  ar
    28    26    36  ar
    29    27    28  ar
    30    28    29   1
    31    28    35  ar
    32    29    30   1
    33    29    31  am
    34    31    32   2
    35    31    33   2
    36    31    34   1
    37    35    36  ar
    38    36    37   1
    39    37    38   2
    40    37    39  am
    41    39    40   1
    42    40    41   1
    43    40    42   1
    44    42    43  ar
    45    42    47  ar
    46    43    44  ar
    47    44    45  ar
    48    45    46  ar
    49    46    47  ar
    50     1    48   1
    51     1    49   1
    52     1    50   1
    53     2    51   1
    54     3    52   1
    55     3    53   1
    56     3    54   1
    57     4    55   1
    58     4    56   1
    59     5    57   1
    60     8    58   1
    61     9    59   1
    62    10    60   1
    63    10    61   1
    64    10    62   1
    65    11    63   1
    66    12    64   1
    67    12    65   1
    68    13    66   1
    69    13    67   1
    70    14    68   1
    71    15    69   1
    72    15    70   1
    73    17    71   1
    74    18    72   1
    75    19    73   1
    76    20    74   1
    77    21    75   1
    78    22    76   1
    79    26    77   1
    80    27    78   1
    81    30    79   1
    82    30    80   1
    83    30    81   1
    84    34    82   1
    85    34    83   1
    86    34    84   1
    87    35    85   1
    88    39    86   1
    89    40    87   1
    90    41    88   1
    91    41    89   1
    92    41    90   1
    93    43    91   1
    94    44    92   1
    95    45    93   1
    96    46    94   1
    97    47    95   1
@<TRIPOS>SUBSTRUCTURE
     1  MOL      1

