@<TRIPOS>MOLECULE
4gid_ligand_000
    95    97
SMALL
GAST_HUCK
****
This file was generated by PARSER (from files_GN.cpp)

@<TRIPOS>ATOM
      1 CBK        42.7477    0.5730   12.1831 C.3         1 MOL      -0.0608
      2 CBL        43.9912    1.4678   11.9099 C.3         1 MOL      -0.0265
      3 CBM        44.4483    2.1733   13.2207 C.3         1 MOL      -0.0608
      4 CBN        45.1839    0.7097   11.2396 C.3         1 MOL       0.0334
      5 NBO        44.7811   -0.5105   10.5998 N.am        1 MOL      -0.2820
      6 CBP        44.9536   -1.7432   11.0714 C.2         1 MOL       0.2271
      7 OBV        45.5452   -1.9247   12.1293 O.2         1 MOL      -0.3908
      8 CBG        44.4817   -2.9091   10.3265 C.3         1 MOL       0.0928
      9 CBH        45.2772   -3.1045    8.9897 C.3         1 MOL       0.1121
     10 CBJ        46.8235   -3.0036    9.1067 C.3         1 MOL      -0.0314
     11 OBI        45.0033   -4.4061    8.4572 O.3         1 MOL      -0.3840
     12 NBF        43.0102   -2.7384   10.1414 N.4         1 MOL       0.2497
     13 CAX        42.2261   -3.8122    9.4850 C.3         1 MOL      -0.0062
     14 CAW        41.8816   -5.0202   10.4152 C.3         1 MOL       0.0906
     15 CAY        41.6676   -6.3237    9.5723 C.3         1 MOL       0.0089
     16 CAZ        40.8182   -7.3558   10.2276 C.ar        1 MOL      -0.0406
     17 CBA        39.4333   -7.4322    9.9396 C.ar        1 MOL      -0.0603
     18 CBB        38.6147   -8.3681   10.5926 C.ar        1 MOL      -0.0686
     19 CBC        39.1673   -9.2409   11.5431 C.ar        1 MOL      -0.0687
     20 CBD        40.5428   -9.1864   11.8335 C.ar        1 MOL      -0.0686
     21 CBE        41.3650   -8.2457   11.1837 C.ar        1 MOL      -0.0603
     22 NAV        40.6904   -4.7076   11.1617 N.am        1 MOL      -0.2761
     23 CAT        40.5515   -4.5056   12.4755 C.2         1 MOL       0.2026
     24 OAU        41.5511   -4.4203   13.1757 O.2         1 MOL      -0.3847
     25 CAP        39.2797   -4.3787   13.0476 C.ar        1 MOL       0.0397
     26 CAQ        38.1736   -5.0729   12.4944 C.ar        1 MOL      -0.0393
     27 CAO        39.0446   -3.5776   14.1895 C.ar        1 MOL      -0.0214
     28 CAN        37.7573   -3.4371   14.7544 C.ar        1 MOL       0.0754
     29 NAE        37.5297   -2.5742   15.7944 N.am        1 MOL      -0.1796
     30 CBT        38.1014   -2.7907   17.0940 C.3         1 MOL       0.0445
     31 SAB        36.4549   -1.2820   15.5874 S.o2        1 MOL       0.0593
     32 OAC        36.2964   -0.9587   14.0374 O.2         1 MOL      -0.1500
     33 OAD        35.0063   -1.6608   16.1218 O.2         1 MOL      -0.1500
     34 CAA        36.9988    0.2746   16.3142 C.3         1 MOL       0.0790
     35 CAS        36.6935   -4.1851   14.2026 C.ar        1 MOL      -0.0214
     36 CAR        36.8852   -5.0039   13.0689 C.ar        1 MOL       0.0398
     37 CAL        35.8401   -5.7472   12.5613 C.2         1 MOL       0.2041
     38 OAM        35.3273   -6.6186   13.2670 O.2         1 MOL      -0.3845
     39 NBQ        35.3431   -5.4743   11.3442 N.am        1 MOL      -0.2723
     40 CBR        34.2100   -6.0951   10.7231 C.3         1 MOL       0.0723
     41 CBS        34.2373   -7.6436   10.8386 C.3         1 MOL      -0.0320
     42 CAI        34.0979   -5.6699    9.2890 C.ar        1 MOL      -0.0183
     43 CAH        32.8765   -5.1715    8.7699 C.ar        1 MOL      -0.0582
     44 CAG        32.7814   -4.7201    7.4422 C.ar        1 MOL      -0.0685
     45 CAF        33.9077   -4.7563    6.6020 C.ar        1 MOL      -0.0687
     46 CAK        35.1262   -5.2699    7.0857 C.ar        1 MOL      -0.0685
     47 CAJ        35.2161   -5.7348    8.4141 C.ar        1 MOL      -0.0582
     48 H1         41.9470    1.1522   12.6454 H           1 MOL       0.0233
     49 H2         43.0031   -0.2614   12.8386 H           1 MOL       0.0233
     50 H3         42.3565    0.1729   11.2460 H           1 MOL       0.0233
     51 H4         43.6669    2.2514   11.2157 H           1 MOL       0.0315
     52 H5         45.2735    2.8567   13.0122 H           1 MOL       0.0233
     53 H6         44.7799    1.4402   13.9608 H           1 MOL       0.0233
     54 H7         43.6332    2.7503   13.6593 H           1 MOL       0.0233
     55 H8         45.9657    0.5273   11.9829 H           1 MOL       0.0522
     56 H9         45.6280    1.3477   10.4705 H           1 MOL       0.0522
     57 H10        44.2797   -0.4194    9.7694 H           1 MOL       0.1853
     58 H11        44.6437   -3.7990   10.9440 H           1 MOL       0.1125
     59 H12        44.9369   -2.3506    8.2752 H           1 MOL       0.0674
     60 H13        47.2842   -3.2371    8.1433 H           1 MOL       0.0258
     61 H14        47.1918   -3.7116    9.8555 H           1 MOL       0.0258
     62 H15        47.1351   -1.9924    9.3898 H           1 MOL       0.0258
     63 H16        44.6398   -4.2704    7.5522 H           1 MOL       0.2102
     64 H17        42.8665   -1.8912    9.5872 H           1 MOL       0.2037
     65 H18        42.5873   -2.5813   11.0649 H           1 MOL       0.2037
     66 H19        42.7493   -4.1400    8.5790 H           1 MOL       0.0839
     67 H20        41.2878   -3.3608    9.1462 H           1 MOL       0.0839
     68 H21        42.7198   -5.2080   11.0929 H           1 MOL       0.0632
     69 H22        42.6431   -6.7693    9.3413 H           1 MOL       0.0450
     70 H23        41.2227   -6.0494    8.6095 H           1 MOL       0.0450
     71 H24        39.0052   -6.7928    9.2636 H           1 MOL       0.0557
     72 H25        37.6147   -8.4010   10.3844 H           1 MOL       0.0599
     73 H26        38.5655   -9.9140   12.0219 H           1 MOL       0.0559
     74 H27        40.9437   -9.8191   12.5292 H           1 MOL       0.0599
     75 H28        42.3631   -8.2085   11.4131 H           1 MOL       0.0557
     76 H29        39.8860   -4.6482   10.6310 H           1 MOL       0.1852
     77 H30        38.3078   -5.6963   11.6904 H           1 MOL       0.0576
     78 H31        39.8171   -3.0407   14.5987 H           1 MOL       0.0566
     79 H32        38.7429   -3.6750   17.1333 H           1 MOL       0.0517
     80 H33        37.3027   -2.9291   17.8268 H           1 MOL       0.0517
     81 H34        38.7027   -1.9299   17.3951 H           1 MOL       0.0517
     82 H35        36.3807    1.0922   15.9435 H           1 MOL       0.0487
     83 H36        38.0357    0.4509   16.0369 H           1 MOL       0.0487
     84 H37        36.9166    0.2224   17.3994 H           1 MOL       0.0487
     85 H38        35.7615   -4.1021   14.6199 H           1 MOL       0.0566
     86 H39        35.7677   -4.7465   10.8573 H           1 MOL       0.1875
     87 H40        33.3171   -5.7557   11.2643 H           1 MOL       0.0716
     88 H41        33.3261   -8.0677   10.4168 H           1 MOL       0.0274
     89 H42        34.2808   -7.9487   11.8890 H           1 MOL       0.0274
     90 H43        35.1024   -8.0656   10.3159 H           1 MOL       0.0274
     91 H44        32.0425   -5.1298    9.3607 H           1 MOL       0.0557
     92 H45        31.8918   -4.3556    7.0844 H           1 MOL       0.0599
     93 H46        33.8440   -4.4143    5.6394 H           1 MOL       0.0559
     94 H47        35.9422   -5.3054    6.4735 H           1 MOL       0.0599
     95 H48        36.1073   -6.1060    8.7449 H           1 MOL       0.0557
@<TRIPOS>BOND
     1     1     2   1
     2     2     3   1
     3     2     4   1
     4     4     5   1
     5     5     6  am
     6     6     7   2
     7     6     8   1
     8     8     9   1
     9     8    12   1
    10     9    10   1
    11     9    11   1
    12    12    13   1
    13    13    14   1
    14    14    15   1
    15    14    22   1
    16    15    16   1
    17    16    17  ar
    18    16    21  ar
    19    17    18  ar
    20    18    19  ar
    21    19    20  ar
    22    20    21  ar
    23    22    23  am
    24    23    24   2
    25    23    25   1
    26    25    26  ar
    27    25    27  ar
    28    26    36  ar
    29    27    28  ar
    30    28    29   1
    31    28    35  ar
    32    29    30   1
    33    29    31  am
    34    31    32   2
    35    31    33   2
    36    31    34   1
    37    35    36  ar
    38    36    37   1
    39    37    38   2
    40    37    39  am
    41    39    40   1
    42    40    41   1
    43    40    42   1
    44    42    43  ar
    45    42    47  ar
    46    43    44  ar
    47    44    45  ar
    48    45    46  ar
    49    46    47  ar
    50     1    48   1
    51     1    49   1
    52     1    50   1
    53     2    51   1
    54     3    52   1
    55     3    53   1
    56     3    54   1
    57     4    55   1
    58     4    56   1
    59     5    57   1
    60     8    58   1
    61     9    59   1
    62    10    60   1
    63    10    61   1
    64    10    62   1
    65    11    63   1
    66    12    64   1
    67    12    65   1
    68    13    66   1
    69    13    67   1
    70    14    68   1
    71    15    69   1
    72    15    70   1
    73    17    71   1
    74    18    72   1
    75    19    73   1
    76    20    74   1
    77    21    75   1
    78    22    76   1
    79    26    77   1
    80    27    78   1
    81    30    79   1
    82    30    80   1
    83    30    81   1
    84    34    82   1
    85    34    83   1
    86    34    84   1
    87    35    85   1
    88    39    86   1
    89    40    87   1
    90    41    88   1
    91    41    89   1
    92    41    90   1
    93    43    91   1
    94    44    92   1
    95    45    93   1
    96    46    94   1
    97    47    95   1
@<TRIPOS>SUBSTRUCTURE
     1  MOL      1

