@<TRIPOS>MOLECULE
4gid_ligand_045
    95    97
SMALL
GAST_HUCK
****
This file was generated by PARSER (from files_GN.cpp)

@<TRIPOS>ATOM
      1 CBK        39.6495   -8.9730    9.6704 C.3         1 MOL      -0.0608
      2 CBL        40.2477   -7.6719   10.2789 C.3         1 MOL      -0.0265
      3 CBM        40.9292   -7.9857   11.6403 C.3         1 MOL      -0.0608
      4 CBN        41.1927   -6.9731    9.2530 C.3         1 MOL       0.0334
      5 NBO        42.0781   -6.0294    9.8627 N.am        1 MOL      -0.2820
      6 CBP        42.0945   -4.7076    9.7251 C.2         1 MOL       0.2271
      7 OBV        41.2406   -4.1286    9.0657 O.2         1 MOL      -0.3908
      8 CBG        43.1167   -3.9264   10.4194 C.3         1 MOL       0.0928
      9 CBH        42.6489   -3.4472   11.8308 C.3         1 MOL       0.1121
     10 CBJ        41.5302   -2.3771   11.8466 C.3         1 MOL      -0.0314
     11 OBI        42.2375   -4.5520   12.6332 O.3         1 MOL      -0.3840
     12 NBF        43.6132   -2.8237    9.5378 N.4         1 MOL       0.2497
     13 CAX        44.9496   -2.2452    9.8384 C.3         1 MOL      -0.0062
     14 CAW        44.9500   -1.0434   10.8419 C.3         1 MOL       0.0906
     15 CAY        44.8999    0.3551   10.1346 C.3         1 MOL       0.0089
     16 CAZ        45.4254    1.4636   10.9812 C.ar        1 MOL      -0.0406
     17 CBA        44.5652    2.3343   11.6922 C.ar        1 MOL      -0.0603
     18 CBB        45.0967    3.3171   12.5520 C.ar        1 MOL      -0.0686
     19 CBC        46.4922    3.4320   12.7180 C.ar        1 MOL      -0.0687
     20 CBD        47.3531    2.5730   12.0165 C.ar        1 MOL      -0.0686
     21 CBE        46.8218    1.6159   11.1410 C.ar        1 MOL      -0.0603
     22 NAV        46.0158   -1.1815   11.7987 N.am        1 MOL      -0.2761
     23 CAT        47.3077   -1.3083   11.5395 C.2         1 MOL       0.2026
     24 OAU        47.7361   -1.3260   10.3897 O.2         1 MOL      -0.3847
     25 CAP        48.2030   -1.3742   12.5849 C.ar        1 MOL       0.0397
     26 CAQ        48.2482   -2.5045   13.4350 C.ar        1 MOL      -0.0393
     27 CAO        49.0598   -0.2799   12.8394 C.ar        1 MOL      -0.0214
     28 CAN        49.9258   -0.2940   13.9516 C.ar        1 MOL       0.0754
     29 NAE        50.6501    0.8164   14.2532 N.am        1 MOL      -0.1796
     30 CBT        51.8171    1.1758   13.4990 C.3         1 MOL       0.0445
     31 SAB        49.9815    1.9381   15.3287 S.o2        1 MOL       0.0593
     32 OAC        49.4197    3.1959   14.5338 O.2         1 MOL      -0.1500
     33 OAD        48.7306    1.2969   16.0786 O.2         1 MOL      -0.1500
     34 CAA        51.1210    2.4683   16.6190 C.3         1 MOL       0.0790
     35 CAS        49.9847   -1.4393   14.7744 C.ar        1 MOL      -0.0214
     36 CAR        49.1621   -2.5597   14.5114 C.ar        1 MOL       0.0398
     37 CAL        49.3026   -3.7028   15.2658 C.2         1 MOL       0.2041
     38 OAM        50.3032   -4.3812   15.0834 O.2         1 MOL      -0.3845
     39 NBQ        48.4493   -3.9587   16.2509 N.am        1 MOL      -0.2723
     40 CBR        48.5347   -5.0453   17.1940 C.3         1 MOL       0.0723
     41 CBS        47.4578   -4.8502   18.2920 C.3         1 MOL      -0.0320
     42 CAI        49.9022   -5.1891   17.7932 C.ar        1 MOL      -0.0183
     43 CAH        50.6369   -4.0519   18.2134 C.ar        1 MOL      -0.0582
     44 CAG        51.9556   -4.1767   18.6912 C.ar        1 MOL      -0.0685
     45 CAF        52.5543   -5.4465   18.7820 C.ar        1 MOL      -0.0687
     46 CAK        51.8240   -6.5916   18.4204 C.ar        1 MOL      -0.0685
     47 CAJ        50.5104   -6.4637   17.9303 C.ar        1 MOL      -0.0582
     48 H1         38.9171   -9.4188   10.3488 H           1 MOL       0.0233
     49 H2         40.4350   -9.7076    9.4824 H           1 MOL       0.0233
     50 H3         39.1447   -8.7572    8.7265 H           1 MOL       0.0233
     51 H4         39.4132   -6.9954   10.4841 H           1 MOL       0.0315
     52 H5         41.2034   -7.0590   12.1466 H           1 MOL       0.0233
     53 H6         41.8301   -8.5816   11.4942 H           1 MOL       0.0233
     54 H7         40.2511   -8.5326   12.3000 H           1 MOL       0.0233
     55 H8         40.5792   -6.5057    8.4759 H           1 MOL       0.0522
     56 H9         41.8185   -7.7254    8.7675 H           1 MOL       0.0522
     57 H10        42.7616   -6.4112   10.4395 H           1 MOL       0.1853
     58 H11        43.9591   -4.6047   10.5957 H           1 MOL       0.1125
     59 H12        43.5146   -3.0239   12.3425 H           1 MOL       0.0674
     60 H13        41.3169   -2.0835   12.8805 H           1 MOL       0.0258
     61 H14        40.6121   -2.7707   11.3992 H           1 MOL       0.0258
     62 H15        41.8485   -1.4875   11.2966 H           1 MOL       0.0258
     63 H16        41.4083   -4.8834   12.2236 H           1 MOL       0.2102
     64 H17        42.9261   -2.0647    9.5018 H           1 MOL       0.2037
     65 H18        43.6797   -3.2098    8.5924 H           1 MOL       0.2037
     66 H19        45.3649   -1.9182    8.8869 H           1 MOL       0.0839
     67 H20        45.6213   -3.0384   10.1880 H           1 MOL       0.0839
     68 H21        44.0433   -1.1031   11.4461 H           1 MOL       0.0632
     69 H22        43.8654    0.5731    9.8536 H           1 MOL       0.0450
     70 H23        45.4697    0.3219    9.2010 H           1 MOL       0.0450
     71 H24        43.5494    2.2516   11.5952 H           1 MOL       0.0557
     72 H25        44.4709    3.9399   13.0694 H           1 MOL       0.0599
     73 H26        46.8854    4.1377   13.3453 H           1 MOL       0.0559
     74 H27        48.3663    2.6302   12.1431 H           1 MOL       0.0599
     75 H28        47.4688    1.0064   10.6444 H           1 MOL       0.0557
     76 H29        45.7551   -1.1328   12.7348 H           1 MOL       0.1852
     77 H30        47.6372   -3.3071   13.2452 H           1 MOL       0.0576
     78 H31        49.0188    0.5593   12.2453 H           1 MOL       0.0566
     79 H32        52.1009    0.4020   12.7800 H           1 MOL       0.0517
     80 H33        52.6604    1.3289   14.1753 H           1 MOL       0.0517
     81 H34        51.6361    2.1004   12.9459 H           1 MOL       0.0517
     82 H35        50.6027    3.1273   17.3157 H           1 MOL       0.0487
     83 H36        51.9544    3.0054   16.1672 H           1 MOL       0.0487
     84 H37        51.4978    1.5972   17.1543 H           1 MOL       0.0487
     85 H38        50.6302   -1.4535   15.5707 H           1 MOL       0.0566
     86 H39        47.6966   -3.3493   16.3430 H           1 MOL       0.1875
     87 H40        48.2756   -5.9609   16.6520 H           1 MOL       0.0716
     88 H41        47.4687   -5.6926   18.9882 H           1 MOL       0.0274
     89 H42        46.4633   -4.7936   17.8395 H           1 MOL       0.0274
     90 H43        47.6352   -3.9265   18.8516 H           1 MOL       0.0274
     91 H44        50.2248   -3.1194   18.1452 H           1 MOL       0.0557
     92 H45        52.4869   -3.3439   18.9533 H           1 MOL       0.0599
     93 H46        53.5173   -5.5365   19.1169 H           1 MOL       0.0559
     94 H47        52.2567   -7.5171   18.4967 H           1 MOL       0.0599
     95 H48        50.0061   -7.3100   17.6598 H           1 MOL       0.0557
@<TRIPOS>BOND
     1     1     2   1
     2     2     3   1
     3     2     4   1
     4     4     5   1
     5     5     6  am
     6     6     7   2
     7     6     8   1
     8     8     9   1
     9     8    12   1
    10     9    10   1
    11     9    11   1
    12    12    13   1
    13    13    14   1
    14    14    15   1
    15    14    22   1
    16    15    16   1
    17    16    17  ar
    18    16    21  ar
    19    17    18  ar
    20    18    19  ar
    21    19    20  ar
    22    20    21  ar
    23    22    23  am
    24    23    24   2
    25    23    25   1
    26    25    26  ar
    27    25    27  ar
    28    26    36  ar
    29    27    28  ar
    30    28    29   1
    31    28    35  ar
    32    29    30   1
    33    29    31  am
    34    31    32   2
    35    31    33   2
    36    31    34   1
    37    35    36  ar
    38    36    37   1
    39    37    38   2
    40    37    39  am
    41    39    40   1
    42    40    41   1
    43    40    42   1
    44    42    43  ar
    45    42    47  ar
    46    43    44  ar
    47    44    45  ar
    48    45    46  ar
    49    46    47  ar
    50     1    48   1
    51     1    49   1
    52     1    50   1
    53     2    51   1
    54     3    52   1
    55     3    53   1
    56     3    54   1
    57     4    55   1
    58     4    56   1
    59     5    57   1
    60     8    58   1
    61     9    59   1
    62    10    60   1
    63    10    61   1
    64    10    62   1
    65    11    63   1
    66    12    64   1
    67    12    65   1
    68    13    66   1
    69    13    67   1
    70    14    68   1
    71    15    69   1
    72    15    70   1
    73    17    71   1
    74    18    72   1
    75    19    73   1
    76    20    74   1
    77    21    75   1
    78    22    76   1
    79    26    77   1
    80    27    78   1
    81    30    79   1
    82    30    80   1
    83    30    81   1
    84    34    82   1
    85    34    83   1
    86    34    84   1
    87    35    85   1
    88    39    86   1
    89    40    87   1
    90    41    88   1
    91    41    89   1
    92    41    90   1
    93    43    91   1
    94    44    92   1
    95    45    93   1
    96    46    94   1
    97    47    95   1
@<TRIPOS>SUBSTRUCTURE
     1  MOL      1

