@<TRIPOS>MOLECULE
4gid_ligand_005
    95    97
SMALL
GAST_HUCK
****
This file was generated by PARSER (from files_GN.cpp)

@<TRIPOS>ATOM
      1 CBK        41.9230   -3.5933    8.9430 C.3         1 MOL      -0.0608
      2 CBL        41.8835   -4.1776   10.3862 C.3         1 MOL      -0.0265
      3 CBM        43.0039   -5.2340   10.5878 C.3         1 MOL      -0.0608
      4 CBN        41.8653   -3.0788   11.5000 C.3         1 MOL       0.0334
      5 NBO        42.5600   -1.8618   11.1954 N.am        1 MOL      -0.2820
      6 CBP        43.8319   -1.5516   11.4294 C.2         1 MOL       0.2271
      7 OBV        44.5608   -2.3463   12.0005 O.2         1 MOL      -0.3908
      8 CBG        44.3673   -0.2802   10.9326 C.3         1 MOL       0.0928
      9 CBH        45.1434   -0.4895    9.5870 C.3         1 MOL       0.1121
     10 CBJ        45.2272    0.7944    8.7174 C.3         1 MOL      -0.0314
     11 OBI        46.4539   -1.0135    9.8024 O.3         1 MOL      -0.3840
     12 NBF        44.9950    0.5214   12.0351 N.4         1 MOL       0.2497
     13 CAX        46.4611    0.6770   12.2628 C.3         1 MOL      -0.0062
     14 CAW        47.1390   -0.4759   13.0844 C.3         1 MOL       0.0906
     15 CAY        47.6320   -0.0759   14.5172 C.3         1 MOL       0.0089
     16 CAZ        49.0410    0.4083   14.6170 C.ar        1 MOL      -0.0406
     17 CBA        50.0896   -0.5027   14.8924 C.ar        1 MOL      -0.0603
     18 CBB        51.4270   -0.0711   14.9489 C.ar        1 MOL      -0.0686
     19 CBC        51.7379    1.2836   14.7331 C.ar        1 MOL      -0.0687
     20 CBD        50.7075    2.2027   14.4590 C.ar        1 MOL      -0.0686
     21 CBE        49.3691    1.7687   14.4054 C.ar        1 MOL      -0.0603
     22 NAV        48.2315   -0.9936   12.3106 N.am        1 MOL      -0.2761
     23 CAT        48.3559   -2.1700   11.7138 C.2         1 MOL       0.2026
     24 OAU        47.4718   -3.0183   11.8226 O.2         1 MOL      -0.3847
     25 CAP        49.4133   -2.3705   10.8352 C.ar        1 MOL       0.0397
     26 CAQ        50.6734   -1.7575   11.0553 C.ar        1 MOL      -0.0393
     27 CAO        49.2210   -3.1010    9.6405 C.ar        1 MOL      -0.0214
     28 CAN        50.2573   -3.2315    8.6937 C.ar        1 MOL       0.0754
     29 NAE        50.0072   -3.7672    7.4662 N.am        1 MOL      -0.1796
     30 CBT        50.0313   -2.9350    6.2966 C.3         1 MOL       0.0445
     31 SAB        49.7166   -5.4254    7.3178 S.o2        1 MOL       0.0593
     32 OAC        48.4800   -5.8617    8.2151 O.2         1 MOL      -0.1500
     33 OAD        49.2982   -5.7871    5.8255 O.2         1 MOL      -0.1500
     34 CAA        51.1661   -6.3994    7.7476 C.3         1 MOL       0.0790
     35 CAS        51.5144   -2.6550    8.9631 C.ar        1 MOL      -0.0214
     36 CAR        51.7339   -1.8900   10.1280 C.ar        1 MOL       0.0398
     37 CAL        52.9547   -1.2521   10.3316 C.2         1 MOL       0.2041
     38 OAM        53.9862   -1.8948   10.1694 O.2         1 MOL      -0.3845
     39 NBQ        52.9962    0.0466   10.6209 N.am        1 MOL      -0.2723
     40 CBR        54.1783    0.8418   10.8457 C.3         1 MOL       0.0723
     41 CBS        53.7830    2.1959   11.4892 C.3         1 MOL      -0.0320
     42 CAI        54.9794    1.0614    9.5991 C.ar        1 MOL      -0.0183
     43 CAH        56.2497    0.4556    9.4354 C.ar        1 MOL      -0.0582
     44 CAG        57.0084    0.6692    8.2706 C.ar        1 MOL      -0.0685
     45 CAF        56.5074    1.4893    7.2447 C.ar        1 MOL      -0.0687
     46 CAK        55.2508    2.1018    7.3916 C.ar        1 MOL      -0.0685
     47 CAJ        54.4877    1.8797    8.5518 C.ar        1 MOL      -0.0582
     48 H1         41.6935   -4.3685    8.2066 H           1 MOL       0.0233
     49 H2         42.9094   -3.1868    8.7184 H           1 MOL       0.0233
     50 H3         41.1893   -2.7931    8.8350 H           1 MOL       0.0233
     51 H4         40.9372   -4.7277   10.4722 H           1 MOL       0.0315
     52 H5         42.9061   -5.7034   11.5683 H           1 MOL       0.0233
     53 H6         43.9885   -4.7758   10.5124 H           1 MOL       0.0233
     54 H7         42.9295   -6.0177    9.8308 H           1 MOL       0.0233
     55 H8         42.2131   -3.4747   12.4567 H           1 MOL       0.0522
     56 H9         40.8229   -2.7853   11.6498 H           1 MOL       0.0522
     57 H10        42.0427   -1.1962   10.7136 H           1 MOL       0.1853
     58 H11        43.5013    0.3340   10.6591 H           1 MOL       0.1125
     59 H12        44.5934   -1.2338    8.9838 H           1 MOL       0.0674
     60 H13        45.7719    0.5903    7.7891 H           1 MOL       0.0258
     61 H14        45.7474    1.5925    9.2550 H           1 MOL       0.0258
     62 H15        44.2166    1.1340    8.4541 H           1 MOL       0.0258
     63 H16        46.7530   -1.2771    8.9082 H           1 MOL       0.2102
     64 H17        44.5946    0.1917   12.9190 H           1 MOL       0.2037
     65 H18        44.6485    1.4753   11.9007 H           1 MOL       0.2037
     66 H19        46.5602    1.6102   12.8197 H           1 MOL       0.0839
     67 H20        46.9711    0.8485   11.3098 H           1 MOL       0.0839
     68 H21        46.3944   -1.2580   13.2312 H           1 MOL       0.0632
     69 H22        47.5122   -0.9566   15.1549 H           1 MOL       0.0450
     70 H23        46.9688    0.6811   14.9400 H           1 MOL       0.0450
     71 H24        49.8924   -1.4938   15.0455 H           1 MOL       0.0557
     72 H25        52.1760   -0.7397   15.1453 H           1 MOL       0.0599
     73 H26        52.7113    1.5982   14.7765 H           1 MOL       0.0559
     74 H27        50.9358    3.1860   14.3014 H           1 MOL       0.0599
     75 H28        48.6406    2.4569   14.2150 H           1 MOL       0.0557
     76 H29        48.9447   -0.3542   12.1435 H           1 MOL       0.1852
     77 H30        50.8314   -1.2207   11.9136 H           1 MOL       0.0576
     78 H31        48.3000   -3.4864    9.4161 H           1 MOL       0.0566
     79 H32        50.2574   -1.8905    6.5323 H           1 MOL       0.0517
     80 H33        49.0524   -2.9494    5.8194 H           1 MOL       0.0517
     81 H34        50.7820   -3.2929    5.5862 H           1 MOL       0.0517
     82 H35        50.9792   -7.4534    7.5390 H           1 MOL       0.0487
     83 H36        51.3809   -6.2721    8.8104 H           1 MOL       0.0487
     84 H37        52.0218   -6.0578    7.1615 H           1 MOL       0.0487
     85 H38        52.2594   -2.7361    8.2631 H           1 MOL       0.0566
     86 H39        52.1372    0.5046   10.6787 H           1 MOL       0.1875
     87 H40        54.7782    0.3118   11.5941 H           1 MOL       0.0716
     88 H41        54.6727    2.8037   11.6681 H           1 MOL       0.0274
     89 H42        53.2895    2.0226   12.4461 H           1 MOL       0.0274
     90 H43        53.0963    2.7548   10.8491 H           1 MOL       0.0274
     91 H44        56.6386   -0.1417   10.1686 H           1 MOL       0.0557
     92 H45        57.9229    0.2264    8.1636 H           1 MOL       0.0599
     93 H46        57.0580    1.6450    6.3961 H           1 MOL       0.0559
     94 H47        54.8872    2.7068    6.6517 H           1 MOL       0.0599
     95 H48        53.5741    2.3301    8.6342 H           1 MOL       0.0557
@<TRIPOS>BOND
     1     1     2   1
     2     2     3   1
     3     2     4   1
     4     4     5   1
     5     5     6  am
     6     6     7   2
     7     6     8   1
     8     8     9   1
     9     8    12   1
    10     9    10   1
    11     9    11   1
    12    12    13   1
    13    13    14   1
    14    14    15   1
    15    14    22   1
    16    15    16   1
    17    16    17  ar
    18    16    21  ar
    19    17    18  ar
    20    18    19  ar
    21    19    20  ar
    22    20    21  ar
    23    22    23  am
    24    23    24   2
    25    23    25   1
    26    25    26  ar
    27    25    27  ar
    28    26    36  ar
    29    27    28  ar
    30    28    29   1
    31    28    35  ar
    32    29    30   1
    33    29    31  am
    34    31    32   2
    35    31    33   2
    36    31    34   1
    37    35    36  ar
    38    36    37   1
    39    37    38   2
    40    37    39  am
    41    39    40   1
    42    40    41   1
    43    40    42   1
    44    42    43  ar
    45    42    47  ar
    46    43    44  ar
    47    44    45  ar
    48    45    46  ar
    49    46    47  ar
    50     1    48   1
    51     1    49   1
    52     1    50   1
    53     2    51   1
    54     3    52   1
    55     3    53   1
    56     3    54   1
    57     4    55   1
    58     4    56   1
    59     5    57   1
    60     8    58   1
    61     9    59   1
    62    10    60   1
    63    10    61   1
    64    10    62   1
    65    11    63   1
    66    12    64   1
    67    12    65   1
    68    13    66   1
    69    13    67   1
    70    14    68   1
    71    15    69   1
    72    15    70   1
    73    17    71   1
    74    18    72   1
    75    19    73   1
    76    20    74   1
    77    21    75   1
    78    22    76   1
    79    26    77   1
    80    27    78   1
    81    30    79   1
    82    30    80   1
    83    30    81   1
    84    34    82   1
    85    34    83   1
    86    34    84   1
    87    35    85   1
    88    39    86   1
    89    40    87   1
    90    41    88   1
    91    41    89   1
    92    41    90   1
    93    43    91   1
    94    44    92   1
    95    45    93   1
    96    46    94   1
    97    47    95   1
@<TRIPOS>SUBSTRUCTURE
     1  MOL      1

