@<TRIPOS>MOLECULE
4gid_ligand_094
    95    97
SMALL
GAST_HUCK
****
This file was generated by PARSER (from files_GN.cpp)

@<TRIPOS>ATOM
      1 CBK        49.7749   -2.5631   12.1370 C.3         1 MOL      -0.0608
      2 CBL        49.1085   -2.2783   13.5079 C.3         1 MOL      -0.0265
      3 CBM        49.8100   -1.0997   14.2317 C.3         1 MOL      -0.0608
      4 CBN        47.5760   -2.0578   13.3821 C.3         1 MOL       0.0334
      5 NBO        47.2262   -0.9057   12.5924 N.am        1 MOL      -0.2820
      6 CBP        46.5206    0.1482   12.9912 C.2         1 MOL       0.2271
      7 OBV        46.1126    0.2376   14.1401 O.2         1 MOL      -0.3908
      8 CBG        46.2143    1.2267   12.0451 C.3         1 MOL       0.0928
      9 CBH        46.1544    2.6498   12.6836 C.3         1 MOL       0.1121
     10 CBJ        47.4751    3.0457   13.3895 C.3         1 MOL      -0.0314
     11 OBI        45.9155    3.6466   11.6854 O.3         1 MOL      -0.3840
     12 NBF        45.0068    0.9796   11.2040 N.4         1 MOL       0.2497
     13 CAX        43.7816    0.3173   11.7277 C.3         1 MOL      -0.0062
     14 CAW        43.7171   -1.2025   11.3772 C.3         1 MOL       0.0906
     15 CAY        43.7726   -1.4733    9.8276 C.3         1 MOL       0.0089
     16 CAZ        44.8641   -2.3827    9.3801 C.ar        1 MOL      -0.0406
     17 CBA        44.5760   -3.5898    8.6966 C.ar        1 MOL      -0.0603
     18 CBB        45.6113   -4.3980    8.1946 C.ar        1 MOL      -0.0686
     19 CBC        46.9554   -4.0452    8.4170 C.ar        1 MOL      -0.0687
     20 CBD        47.2626   -2.8443    9.0800 C.ar        1 MOL      -0.0686
     21 CBE        46.2235   -2.0133    9.5456 C.ar        1 MOL      -0.0603
     22 NAV        42.4943   -1.7425   11.9188 N.am        1 MOL      -0.2761
     23 CAT        42.3406   -2.9262   12.4953 C.2         1 MOL       0.2026
     24 OAU        43.2709   -3.7137   12.6323 O.2         1 MOL      -0.3847
     25 CAP        41.0809   -3.3556   12.8635 C.ar        1 MOL       0.0397
     26 CAQ        40.5773   -3.0725   14.1489 C.ar        1 MOL      -0.0393
     27 CAO        40.2990   -4.1198   11.9690 C.ar        1 MOL      -0.0214
     28 CAN        39.0374   -4.6251   12.3514 C.ar        1 MOL       0.0754
     29 NAE        38.2736   -5.3998   11.5106 N.am        1 MOL      -0.1796
     30 CBT        36.9199   -5.0476   11.1751 C.3         1 MOL       0.0445
     31 SAB        38.8596   -6.8750   10.9072 S.o2        1 MOL       0.0593
     32 OAC        40.4459   -6.9604   10.9613 O.2         1 MOL      -0.1500
     33 OAD        38.3173   -8.0620   11.8152 O.2         1 MOL      -0.1500
     34 CAA        38.4216   -7.2121    9.1924 C.3         1 MOL       0.0790
     35 CAS        38.5554   -4.3170   13.6477 C.ar        1 MOL      -0.0214
     36 CAR        39.2997   -3.5396   14.5650 C.ar        1 MOL       0.0398
     37 CAL        38.7946   -3.2793   15.8438 C.2         1 MOL       0.2041
     38 OAM        37.5805   -3.3211   16.0375 O.2         1 MOL      -0.3845
     39 NBQ        39.5885   -3.0121   16.8820 N.am        1 MOL      -0.2723
     40 CBR        39.1856   -2.8346   18.2549 C.3         1 MOL       0.0723
     41 CBS        40.3967   -2.3360   19.0866 C.3         1 MOL      -0.0320
     42 CAI        38.6203   -4.0874   18.8508 C.ar        1 MOL      -0.0183
     43 CAH        37.3940   -4.0612   19.5597 C.ar        1 MOL      -0.0582
     44 CAG        36.8795   -5.2288   20.1470 C.ar        1 MOL      -0.0685
     45 CAF        37.5746   -6.4448   20.0271 C.ar        1 MOL      -0.0687
     46 CAK        38.7887   -6.4894   19.3181 C.ar        1 MOL      -0.0685
     47 CAJ        39.3091   -5.3193   18.7396 C.ar        1 MOL      -0.0582
     48 H1         50.8359   -2.7963   12.2655 H           1 MOL       0.0233
     49 H2         49.6911   -1.6988   11.4767 H           1 MOL       0.0233
     50 H3         49.3001   -3.4181   11.6540 H           1 MOL       0.0233
     51 H4         49.2558   -3.1653   14.1231 H           1 MOL       0.0315
     52 H5         49.3381   -0.9114   15.2011 H           1 MOL       0.0233
     53 H6         49.7470   -0.1833   13.6360 H           1 MOL       0.0233
     54 H7         50.8619   -1.3250   14.4063 H           1 MOL       0.0233
     55 H8         47.1450   -2.0156   14.3868 H           1 MOL       0.0522
     56 H9         47.1336   -2.9225   12.8847 H           1 MOL       0.0522
     57 H10        47.4989   -0.9280   11.6587 H           1 MOL       0.1853
     58 H11        47.0410    1.2720   11.3310 H           1 MOL       0.1125
     59 H12        45.3289    2.7075   13.4038 H           1 MOL       0.0674
     60 H13        47.4221    4.0910   13.7161 H           1 MOL       0.0258
     61 H14        48.3186    2.9378   12.7054 H           1 MOL       0.0258
     62 H15        47.6506    2.4205   14.2681 H           1 MOL       0.0258
     63 H16        44.9580    3.5751   11.4614 H           1 MOL       0.2102
     64 H17        45.3248    0.4322   10.4080 H           1 MOL       0.2037
     65 H18        44.7128    1.8817   10.8258 H           1 MOL       0.2037
     66 H19        42.9260    0.8189   11.2689 H           1 MOL       0.0839
     67 H20        43.6973    0.4678   12.8122 H           1 MOL       0.0839
     68 H21        44.5724   -1.6710   11.8709 H           1 MOL       0.0632
     69 H22        43.9075   -0.5470    9.2678 H           1 MOL       0.0450
     70 H23        42.8092   -1.8761    9.4958 H           1 MOL       0.0450
     71 H24        43.6089   -3.8789    8.5388 H           1 MOL       0.0557
     72 H25        45.3815   -5.2519    7.6846 H           1 MOL       0.0599
     73 H26        47.7114   -4.6476    8.0842 H           1 MOL       0.0559
     74 H27        48.2388   -2.5619    9.2102 H           1 MOL       0.0599
     75 H28        46.4806   -1.1296    9.9952 H           1 MOL       0.0557
     76 H29        41.6866   -1.2292   11.7587 H           1 MOL       0.1852
     77 H30        41.1424   -2.5085   14.7860 H           1 MOL       0.0576
     78 H31        40.6476   -4.3163   11.0264 H           1 MOL       0.0566
     79 H32        36.6122   -4.1002   11.6217 H           1 MOL       0.0517
     80 H33        36.2367   -5.8223   11.5320 H           1 MOL       0.0517
     81 H34        36.8112   -4.9498   10.0954 H           1 MOL       0.0517
     82 H35        38.8859   -8.1457    8.8718 H           1 MOL       0.0487
     83 H36        38.7672   -6.3991    8.5551 H           1 MOL       0.0487
     84 H37        37.3368   -7.3076    9.0998 H           1 MOL       0.0487
     85 H38        37.6467   -4.7041   13.9233 H           1 MOL       0.0566
     86 H39        40.5463   -2.9758   16.7080 H           1 MOL       0.1875
     87 H40        38.4437   -2.0263   18.2745 H           1 MOL       0.0716
     88 H41        40.0950   -2.1573   20.1214 H           1 MOL       0.0274
     89 H42        40.7739   -1.3948   18.6719 H           1 MOL       0.0274
     90 H43        41.2072   -3.0690   19.0755 H           1 MOL       0.0274
     91 H44        36.8761   -3.1849   19.6647 H           1 MOL       0.0557
     92 H45        36.0000   -5.1934   20.6668 H           1 MOL       0.0599
     93 H46        37.1996   -7.2923   20.4565 H           1 MOL       0.0559
     94 H47        39.2938   -7.3723   19.2310 H           1 MOL       0.0599
     95 H48        40.1966   -5.3726   18.2334 H           1 MOL       0.0557
@<TRIPOS>BOND
     1     1     2   1
     2     2     3   1
     3     2     4   1
     4     4     5   1
     5     5     6  am
     6     6     7   2
     7     6     8   1
     8     8     9   1
     9     8    12   1
    10     9    10   1
    11     9    11   1
    12    12    13   1
    13    13    14   1
    14    14    15   1
    15    14    22   1
    16    15    16   1
    17    16    17  ar
    18    16    21  ar
    19    17    18  ar
    20    18    19  ar
    21    19    20  ar
    22    20    21  ar
    23    22    23  am
    24    23    24   2
    25    23    25   1
    26    25    26  ar
    27    25    27  ar
    28    26    36  ar
    29    27    28  ar
    30    28    29   1
    31    28    35  ar
    32    29    30   1
    33    29    31  am
    34    31    32   2
    35    31    33   2
    36    31    34   1
    37    35    36  ar
    38    36    37   1
    39    37    38   2
    40    37    39  am
    41    39    40   1
    42    40    41   1
    43    40    42   1
    44    42    43  ar
    45    42    47  ar
    46    43    44  ar
    47    44    45  ar
    48    45    46  ar
    49    46    47  ar
    50     1    48   1
    51     1    49   1
    52     1    50   1
    53     2    51   1
    54     3    52   1
    55     3    53   1
    56     3    54   1
    57     4    55   1
    58     4    56   1
    59     5    57   1
    60     8    58   1
    61     9    59   1
    62    10    60   1
    63    10    61   1
    64    10    62   1
    65    11    63   1
    66    12    64   1
    67    12    65   1
    68    13    66   1
    69    13    67   1
    70    14    68   1
    71    15    69   1
    72    15    70   1
    73    17    71   1
    74    18    72   1
    75    19    73   1
    76    20    74   1
    77    21    75   1
    78    22    76   1
    79    26    77   1
    80    27    78   1
    81    30    79   1
    82    30    80   1
    83    30    81   1
    84    34    82   1
    85    34    83   1
    86    34    84   1
    87    35    85   1
    88    39    86   1
    89    40    87   1
    90    41    88   1
    91    41    89   1
    92    41    90   1
    93    43    91   1
    94    44    92   1
    95    45    93   1
    96    46    94   1
    97    47    95   1
@<TRIPOS>SUBSTRUCTURE
     1  MOL      1

