@<TRIPOS>MOLECULE
4gid_ligand_055
    95    97
SMALL
GAST_HUCK
****
This file was generated by PARSER (from files_GN.cpp)

@<TRIPOS>ATOM
      1 CBK        51.9402   -0.5419   11.5505 C.3         1 MOL      -0.0608
      2 CBL        51.2253   -1.2262   12.7470 C.3         1 MOL      -0.0265
      3 CBM        51.7341   -0.6478   14.0994 C.3         1 MOL      -0.0608
      4 CBN        49.6743   -1.1102   12.6166 C.3         1 MOL       0.0334
      5 NBO        49.1582   -1.9931   11.6029 N.am        1 MOL      -0.2820
      6 CBP        48.1344   -2.8349   11.7154 C.2         1 MOL       0.2271
      7 OBV        47.4938   -2.8787   12.7588 O.2         1 MOL      -0.3908
      8 CBG        47.7177   -3.7345   10.6336 C.3         1 MOL       0.0928
      9 CBH        48.7984   -4.0209    9.5367 C.3         1 MOL       0.1121
     10 CBJ        50.0677   -4.7178   10.0936 C.3         1 MOL      -0.0314
     11 OBI        48.2525   -4.8753    8.5253 O.3         1 MOL      -0.3840
     12 NBF        46.4457   -3.2667   10.0010 N.4         1 MOL       0.2497
     13 CAX        45.2362   -3.2348   10.8685 C.3         1 MOL      -0.0062
     14 CAW        43.8946   -2.9737   10.1097 C.3         1 MOL       0.0906
     15 CAY        43.9367   -1.6234    9.3248 C.3         1 MOL       0.0089
     16 CAZ        44.3423   -0.4229   10.1247 C.ar        1 MOL      -0.0406
     17 CBA        45.5611    0.2433    9.8504 C.ar        1 MOL      -0.0603
     18 CBB        45.9752    1.3459   10.6197 C.ar        1 MOL      -0.0686
     19 CBC        45.1695    1.8105   11.6733 C.ar        1 MOL      -0.0687
     20 CBD        43.9492    1.1714   11.9541 C.ar        1 MOL      -0.0686
     21 CBE        43.5356    0.0704   11.1807 C.ar        1 MOL      -0.0603
     22 NAV        42.6719   -3.0275   10.8930 N.am        1 MOL      -0.2761
     23 CAT        42.3540   -3.8412   11.8942 C.2         1 MOL       0.2026
     24 OAU        43.1755   -4.5943   12.3940 O.2         1 MOL      -0.3847
     25 CAP        41.1042   -3.8293   12.4824 C.ar        1 MOL       0.0397
     26 CAQ        40.0355   -4.5903   11.9499 C.ar        1 MOL      -0.0393
     27 CAO        40.9337   -3.1683   13.7168 C.ar        1 MOL      -0.0214
     28 CAN        39.7132   -3.2537   14.4107 C.ar        1 MOL       0.0754
     29 NAE        39.5249   -2.5500   15.5609 N.am        1 MOL      -0.1796
     30 CBT        39.4060   -3.1971   16.8349 C.3         1 MOL       0.0445
     31 SAB        39.1091   -0.9196   15.4064 S.o2        1 MOL       0.0593
     32 OAC        39.2217   -0.1986   16.8194 O.2         1 MOL      -0.1500
     33 OAD        40.1828   -0.1819   14.4905 O.2         1 MOL      -0.1500
     34 CAA        37.4453   -0.6531   14.7630 C.3         1 MOL       0.0790
     35 CAS        38.6707   -4.0405   13.8811 C.ar        1 MOL      -0.0214
     36 CAR        38.8022   -4.7173   12.6439 C.ar        1 MOL       0.0398
     37 CAL        37.7399   -5.4906   12.1521 C.2         1 MOL       0.2041
     38 OAM        36.9446   -5.9932   12.9390 O.2         1 MOL      -0.3845
     39 NBQ        37.5490   -5.6567   10.8489 N.am        1 MOL      -0.2723
     40 CBR        36.4966   -6.3922   10.1964 C.3         1 MOL       0.0723
     41 CBS        37.0949   -7.1550    8.9871 C.3         1 MOL      -0.0320
     42 CAI        35.3624   -5.5202    9.7555 C.ar        1 MOL      -0.0183
     43 CAH        35.5523   -4.1805    9.3324 C.ar        1 MOL      -0.0582
     44 CAG        34.4661   -3.3995    8.8888 C.ar        1 MOL      -0.0685
     45 CAF        33.1746   -3.9494    8.8506 C.ar        1 MOL      -0.0687
     46 CAK        32.9707   -5.2817    9.2448 C.ar        1 MOL      -0.0685
     47 CAJ        34.0532   -6.0579    9.6967 C.ar        1 MOL      -0.0582
     48 H1         53.0214   -0.6680   11.6252 H           1 MOL       0.0233
     49 H2         51.7143    0.5263   11.5316 H           1 MOL       0.0233
     50 H3         51.6117   -0.9831   10.6091 H           1 MOL       0.0233
     51 H4         51.4921   -2.2884   12.7370 H           1 MOL       0.0315
     52 H5         51.3014   -1.2008   14.9373 H           1 MOL       0.0233
     53 H6         51.4598    0.4052   14.2006 H           1 MOL       0.0233
     54 H7         52.8217   -0.7333   14.1697 H           1 MOL       0.0233
     55 H8         49.4075   -0.0849   12.3422 H           1 MOL       0.0522
     56 H9         49.2204   -1.3111   13.5902 H           1 MOL       0.0522
     57 H10        49.6362   -1.9948   10.7597 H           1 MOL       0.1853
     58 H11        47.5153   -4.7179   11.0779 H           1 MOL       0.1125
     59 H12        49.0912   -3.0900    9.0452 H           1 MOL       0.0674
     60 H13        50.7918   -4.8869    9.2912 H           1 MOL       0.0258
     61 H14        49.8048   -5.6856   10.5311 H           1 MOL       0.0258
     62 H15        50.5459   -4.1044   10.8602 H           1 MOL       0.0258
     63 H16        48.9243   -4.9047    7.8090 H           1 MOL       0.2102
     64 H17        46.2352   -3.8973    9.2218 H           1 MOL       0.2037
     65 H18        46.5936   -2.3339    9.6191 H           1 MOL       0.2037
     66 H19        45.3560   -2.4677   11.6371 H           1 MOL       0.0839
     67 H20        45.1675   -4.2063   11.3561 H           1 MOL       0.0839
     68 H21        43.7968   -3.7735    9.3695 H           1 MOL       0.0632
     69 H22        42.9606   -1.4417    8.8754 H           1 MOL       0.0450
     70 H23        44.6179   -1.7610    8.4816 H           1 MOL       0.0450
     71 H24        46.1684   -0.0772    9.0956 H           1 MOL       0.0557
     72 H25        46.8665    1.8068   10.4183 H           1 MOL       0.0599
     73 H26        45.4678    2.6154   12.2336 H           1 MOL       0.0559
     74 H27        43.3648    1.5066   12.7260 H           1 MOL       0.0599
     75 H28        42.6402   -0.3673   11.4012 H           1 MOL       0.0557
     76 H29        41.9658   -2.4244   10.6050 H           1 MOL       0.1852
     77 H30        40.1776   -5.0907   11.0675 H           1 MOL       0.0576
     78 H31        41.7051   -2.6285   14.1185 H           1 MOL       0.0566
     79 H32        39.6485   -4.2607   16.7860 H           1 MOL       0.0517
     80 H33        38.3839   -3.0984   17.2081 H           1 MOL       0.0517
     81 H34        40.0905   -2.7320   17.5476 H           1 MOL       0.0517
     82 H35        37.2490    0.4164   14.6903 H           1 MOL       0.0487
     83 H36        36.7194   -1.1104   15.4354 H           1 MOL       0.0487
     84 H37        37.3568   -1.1053   13.7752 H           1 MOL       0.0487
     85 H38        37.7885   -4.0922   14.4021 H           1 MOL       0.0566
     86 H39        38.1465   -5.1736   10.2624 H           1 MOL       0.1875
     87 H40        36.1184   -7.1607   10.8814 H           1 MOL       0.0716
     88 H41        36.3299   -7.7722    8.5086 H           1 MOL       0.0274
     89 H42        37.9030   -7.8130    9.3177 H           1 MOL       0.0274
     90 H43        37.4954   -6.4576    8.2469 H           1 MOL       0.0274
     91 H44        36.4816   -3.7581    9.3379 H           1 MOL       0.0557
     92 H45        34.6167   -2.4331    8.5848 H           1 MOL       0.0599
     93 H46        32.3849   -3.3838    8.5269 H           1 MOL       0.0559
     94 H47        32.0374   -5.6870    9.1942 H           1 MOL       0.0599
     95 H48        33.8813   -7.0274    9.9694 H           1 MOL       0.0557
@<TRIPOS>BOND
     1     1     2   1
     2     2     3   1
     3     2     4   1
     4     4     5   1
     5     5     6  am
     6     6     7   2
     7     6     8   1
     8     8     9   1
     9     8    12   1
    10     9    10   1
    11     9    11   1
    12    12    13   1
    13    13    14   1
    14    14    15   1
    15    14    22   1
    16    15    16   1
    17    16    17  ar
    18    16    21  ar
    19    17    18  ar
    20    18    19  ar
    21    19    20  ar
    22    20    21  ar
    23    22    23  am
    24    23    24   2
    25    23    25   1
    26    25    26  ar
    27    25    27  ar
    28    26    36  ar
    29    27    28  ar
    30    28    29   1
    31    28    35  ar
    32    29    30   1
    33    29    31  am
    34    31    32   2
    35    31    33   2
    36    31    34   1
    37    35    36  ar
    38    36    37   1
    39    37    38   2
    40    37    39  am
    41    39    40   1
    42    40    41   1
    43    40    42   1
    44    42    43  ar
    45    42    47  ar
    46    43    44  ar
    47    44    45  ar
    48    45    46  ar
    49    46    47  ar
    50     1    48   1
    51     1    49   1
    52     1    50   1
    53     2    51   1
    54     3    52   1
    55     3    53   1
    56     3    54   1
    57     4    55   1
    58     4    56   1
    59     5    57   1
    60     8    58   1
    61     9    59   1
    62    10    60   1
    63    10    61   1
    64    10    62   1
    65    11    63   1
    66    12    64   1
    67    12    65   1
    68    13    66   1
    69    13    67   1
    70    14    68   1
    71    15    69   1
    72    15    70   1
    73    17    71   1
    74    18    72   1
    75    19    73   1
    76    20    74   1
    77    21    75   1
    78    22    76   1
    79    26    77   1
    80    27    78   1
    81    30    79   1
    82    30    80   1
    83    30    81   1
    84    34    82   1
    85    34    83   1
    86    34    84   1
    87    35    85   1
    88    39    86   1
    89    40    87   1
    90    41    88   1
    91    41    89   1
    92    41    90   1
    93    43    91   1
    94    44    92   1
    95    45    93   1
    96    46    94   1
    97    47    95   1
@<TRIPOS>SUBSTRUCTURE
     1  MOL      1

