@<TRIPOS>MOLECULE
4gid_ligand_062
    95    97
SMALL
GAST_HUCK
****
This file was generated by PARSER (from files_GN.cpp)

@<TRIPOS>ATOM
      1 CBK        48.4360   -1.9157   11.8340 C.3         1 MOL      -0.0608
      2 CBL        48.8161   -1.0195   13.0450 C.3         1 MOL      -0.0265
      3 CBM        49.7945    0.1159   12.6395 C.3         1 MOL      -0.0608
      4 CBN        47.5612   -0.4800   13.7982 C.3         1 MOL       0.0334
      5 NBO        46.5269    0.0350   12.9366 N.am        1 MOL      -0.2820
      6 CBP        45.4730   -0.6381   12.4816 C.2         1 MOL       0.2271
      7 OBV        45.4210   -1.8461   12.6762 O.2         1 MOL      -0.3908
      8 CBG        44.4697   -0.0203   11.6073 C.3         1 MOL       0.0928
      9 CBH        43.8200    1.3098   12.1183 C.3         1 MOL       0.1121
     10 CBJ        44.7798    2.3258   12.7789 C.3         1 MOL      -0.0314
     11 OBI        43.1909    1.9864   11.0249 O.3         1 MOL      -0.3840
     12 NBF        43.4249   -1.0159   11.2200 N.4         1 MOL       0.2497
     13 CAX        42.3051   -1.3660   12.1414 C.3         1 MOL      -0.0062
     14 CAW        41.7844   -2.8385   12.0712 C.3         1 MOL       0.0906
     15 CAY        41.7849   -3.4938   10.6469 C.3         1 MOL       0.0089
     16 CAZ        43.1037   -3.6057    9.9689 C.ar        1 MOL      -0.0406
     17 CBA        44.2837   -3.8499   10.7130 C.ar        1 MOL      -0.0603
     18 CBB        45.5464   -3.7774   10.1013 C.ar        1 MOL      -0.0686
     19 CBC        45.6427   -3.5839    8.7147 C.ar        1 MOL      -0.0687
     20 CBD        44.4737   -3.4282    7.9496 C.ar        1 MOL      -0.0686
     21 CBE        43.2148   -3.4064    8.5743 C.ar        1 MOL      -0.0603
     22 NAV        40.4506   -2.8804   12.6229 N.am        1 MOL      -0.2761
     23 CAT        39.7591   -3.9622   12.9801 C.2         1 MOL       0.2026
     24 OAU        40.2823   -5.0691   12.9135 O.2         1 MOL      -0.3847
     25 CAP        38.4364   -3.8732   13.4250 C.ar        1 MOL       0.0397
     26 CAQ        37.9742   -2.7381   14.1294 C.ar        1 MOL      -0.0393
     27 CAO        37.5214   -4.9342   13.2072 C.ar        1 MOL      -0.0214
     28 CAN        36.1818   -4.8849   13.6615 C.ar        1 MOL       0.0754
     29 NAE        35.3272   -5.9337   13.3692 N.am        1 MOL      -0.1796
     30 CBT        35.1997   -6.3882   12.0032 C.3         1 MOL       0.0445
     31 SAB        34.1615   -6.4764   14.4724 S.o2        1 MOL       0.0593
     32 OAC        34.6895   -6.3027   15.9634 O.2         1 MOL      -0.1500
     33 OAD        32.8215   -5.6303   14.3390 O.2         1 MOL      -0.1500
     34 CAA        33.8173   -8.2370   14.2969 C.3         1 MOL       0.0790
     35 CAS        35.7710   -3.7461   14.3923 C.ar        1 MOL      -0.0214
     36 CAR        36.6595   -2.6766   14.6345 C.ar        1 MOL       0.0398
     37 CAL        36.2753   -1.6083   15.4147 C.2         1 MOL       0.2041
     38 OAM        35.8845   -0.5901   14.8568 O.2         1 MOL      -0.3845
     39 NBQ        36.4438   -1.6993   16.7272 N.am        1 MOL      -0.2723
     40 CBR        36.2224   -0.6640   17.6963 C.3         1 MOL       0.0723
     41 CBS        37.3822    0.3707   17.7278 C.3         1 MOL      -0.0320
     42 CAI        35.9962   -1.2789   19.0422 C.ar        1 MOL      -0.0183
     43 CAH        37.0297   -1.9837   19.7106 C.ar        1 MOL      -0.0582
     44 CAG        36.8157   -2.5498   20.9812 C.ar        1 MOL      -0.0685
     45 CAF        35.5601   -2.4339   21.6011 C.ar        1 MOL      -0.0687
     46 CAK        34.5195   -1.7505   20.9506 C.ar        1 MOL      -0.0685
     47 CAJ        34.7365   -1.1770   19.6844 C.ar        1 MOL      -0.0582
     48 H1         49.3229   -2.4036   11.4261 H           1 MOL       0.0233
     49 H2         47.9729   -1.3213   11.0444 H           1 MOL       0.0233
     50 H3         47.7340   -2.6943   12.1442 H           1 MOL       0.0233
     51 H4         49.3635   -1.6591   13.7460 H           1 MOL       0.0315
     52 H5         50.2059    0.5926   13.5316 H           1 MOL       0.0233
     53 H6         49.2796    0.8748   12.0508 H           1 MOL       0.0233
     54 H7         50.6274   -0.2803   12.0559 H           1 MOL       0.0233
     55 H8         47.8600    0.3259   14.4719 H           1 MOL       0.0522
     56 H9         47.1836   -1.2834   14.4381 H           1 MOL       0.0522
     57 H10        46.6109    0.9623   12.6640 H           1 MOL       0.1853
     58 H11        44.9920    0.2164   10.6757 H           1 MOL       0.1125
     59 H12        43.0485    1.0821   12.8553 H           1 MOL       0.0674
     60 H13        44.2466    3.2545   12.9952 H           1 MOL       0.0258
     61 H14        45.6168    2.5535   12.1189 H           1 MOL       0.0258
     62 H15        45.1607    1.9365   13.7220 H           1 MOL       0.0258
     63 H16        42.6991    1.3116   10.5083 H           1 MOL       0.2102
     64 H17        43.9346   -1.8673   11.0239 H           1 MOL       0.2037
     65 H18        43.0080   -0.7182   10.3400 H           1 MOL       0.2037
     66 H19        41.4926   -0.6769   11.9154 H           1 MOL       0.0839
     67 H20        42.5997   -1.1826   13.1768 H           1 MOL       0.0839
     68 H21        42.4259   -3.4255   12.7355 H           1 MOL       0.0632
     69 H22        41.0713   -2.9443   10.0254 H           1 MOL       0.0450
     70 H23        41.4141   -4.5161   10.7216 H           1 MOL       0.0450
     71 H24        44.2393   -3.9970   11.7222 H           1 MOL       0.0557
     72 H25        46.3954   -3.8769   10.6631 H           1 MOL       0.0599
     73 H26        46.5598   -3.5579    8.2661 H           1 MOL       0.0559
     74 H27        44.5357   -3.3129    6.9392 H           1 MOL       0.0599
     75 H28        42.3827   -3.2438    8.0027 H           1 MOL       0.0557
     76 H29        39.9943   -2.0269   12.6993 H           1 MOL       0.1852
     77 H30        38.6205   -1.9663   14.3297 H           1 MOL       0.0576
     78 H31        37.8286   -5.7621   12.6901 H           1 MOL       0.0566
     79 H32        35.8038   -5.8087   11.2999 H           1 MOL       0.0517
     80 H33        34.1636   -6.3176   11.6641 H           1 MOL       0.0517
     81 H34        35.5185   -7.4302   11.9361 H           1 MOL       0.0517
     82 H35        33.1386   -8.5607   15.0870 H           1 MOL       0.0487
     83 H36        34.7501   -8.7989   14.3688 H           1 MOL       0.0487
     84 H37        33.3557   -8.4275   13.3269 H           1 MOL       0.0487
     85 H38        34.8074   -3.6848   14.7318 H           1 MOL       0.0566
     86 H39        36.7469   -2.5577   17.0678 H           1 MOL       0.1875
     87 H40        35.3227   -0.1238   17.3953 H           1 MOL       0.0716
     88 H41        37.2195    1.0983   18.5265 H           1 MOL       0.0274
     89 H42        37.4352    0.9130   16.7835 H           1 MOL       0.0274
     90 H43        38.3425   -0.1222   17.8939 H           1 MOL       0.0274
     91 H44        37.9489   -2.0876   19.2755 H           1 MOL       0.0557
     92 H45        37.5742   -3.0483   21.4536 H           1 MOL       0.0599
     93 H46        35.4034   -2.8483   22.5235 H           1 MOL       0.0559
     94 H47        33.6022   -1.6703   21.3984 H           1 MOL       0.0599
     95 H48        33.9621   -0.6850   19.2316 H           1 MOL       0.0557
@<TRIPOS>BOND
     1     1     2   1
     2     2     3   1
     3     2     4   1
     4     4     5   1
     5     5     6  am
     6     6     7   2
     7     6     8   1
     8     8     9   1
     9     8    12   1
    10     9    10   1
    11     9    11   1
    12    12    13   1
    13    13    14   1
    14    14    15   1
    15    14    22   1
    16    15    16   1
    17    16    17  ar
    18    16    21  ar
    19    17    18  ar
    20    18    19  ar
    21    19    20  ar
    22    20    21  ar
    23    22    23  am
    24    23    24   2
    25    23    25   1
    26    25    26  ar
    27    25    27  ar
    28    26    36  ar
    29    27    28  ar
    30    28    29   1
    31    28    35  ar
    32    29    30   1
    33    29    31  am
    34    31    32   2
    35    31    33   2
    36    31    34   1
    37    35    36  ar
    38    36    37   1
    39    37    38   2
    40    37    39  am
    41    39    40   1
    42    40    41   1
    43    40    42   1
    44    42    43  ar
    45    42    47  ar
    46    43    44  ar
    47    44    45  ar
    48    45    46  ar
    49    46    47  ar
    50     1    48   1
    51     1    49   1
    52     1    50   1
    53     2    51   1
    54     3    52   1
    55     3    53   1
    56     3    54   1
    57     4    55   1
    58     4    56   1
    59     5    57   1
    60     8    58   1
    61     9    59   1
    62    10    60   1
    63    10    61   1
    64    10    62   1
    65    11    63   1
    66    12    64   1
    67    12    65   1
    68    13    66   1
    69    13    67   1
    70    14    68   1
    71    15    69   1
    72    15    70   1
    73    17    71   1
    74    18    72   1
    75    19    73   1
    76    20    74   1
    77    21    75   1
    78    22    76   1
    79    26    77   1
    80    27    78   1
    81    30    79   1
    82    30    80   1
    83    30    81   1
    84    34    82   1
    85    34    83   1
    86    34    84   1
    87    35    85   1
    88    39    86   1
    89    40    87   1
    90    41    88   1
    91    41    89   1
    92    41    90   1
    93    43    91   1
    94    44    92   1
    95    45    93   1
    96    46    94   1
    97    47    95   1
@<TRIPOS>SUBSTRUCTURE
     1  MOL      1

