@<TRIPOS>MOLECULE
4gid_ligand_041
    95    97
SMALL
GAST_HUCK
****
This file was generated by PARSER (from files_GN.cpp)

@<TRIPOS>ATOM
      1 CBK        46.4878    1.4384   13.7818 C.3         1 MOL      -0.0608
      2 CBL        46.0626    2.1598   12.4728 C.3         1 MOL      -0.0265
      3 CBM        47.1236    1.9575   11.3577 C.3         1 MOL      -0.0608
      4 CBN        44.6371    1.7375   12.0027 C.3         1 MOL       0.0334
      5 NBO        44.4487    0.3210   12.0453 N.am        1 MOL      -0.2820
      6 CBP        44.3323   -0.5206   11.0255 C.2         1 MOL       0.2271
      7 OBV        44.3727   -0.1148    9.8716 O.2         1 MOL      -0.3908
      8 CBG        44.1504   -1.9513   11.2787 C.3         1 MOL       0.0928
      9 CBH        45.4083   -2.8117   10.9381 C.3         1 MOL       0.1121
     10 CBJ        45.9187   -2.7236    9.4790 C.3         1 MOL      -0.0314
     11 OBI        46.4881   -2.4779   11.8187 O.3         1 MOL      -0.3840
     12 NBF        42.9337   -2.4747   10.5892 N.4         1 MOL       0.2497
     13 CAX        41.6543   -2.5086   11.3545 C.3         1 MOL      -0.0062
     14 CAW        41.6383   -3.4883   12.5710 C.3         1 MOL       0.0906
     15 CAY        41.6429   -5.0077   12.2228 C.3         1 MOL       0.0089
     16 CAZ        40.4512   -5.5848   11.5398 C.ar        1 MOL      -0.0406
     17 CBA        39.2359   -5.7871   12.2492 C.ar        1 MOL      -0.0603
     18 CBB        38.1363   -6.4245   11.6360 C.ar        1 MOL      -0.0686
     19 CBC        38.2410   -6.8882   10.3130 C.ar        1 MOL      -0.0687
     20 CBD        39.4478   -6.7210    9.6064 C.ar        1 MOL      -0.0686
     21 CBE        40.5359   -6.0641   10.2114 C.ar        1 MOL      -0.0603
     22 NAV        40.6717   -3.1518   13.5764 N.am        1 MOL      -0.2761
     23 CAT        39.3904   -2.8355   13.4481 C.2         1 MOL       0.2026
     24 OAU        38.8746   -2.7559   12.3352 O.2         1 MOL      -0.3847
     25 CAP        38.5845   -2.6928   14.5718 C.ar        1 MOL       0.0397
     26 CAQ        37.2910   -3.2683   14.6017 C.ar        1 MOL      -0.0393
     27 CAO        39.0577   -2.0331   15.7352 C.ar        1 MOL      -0.0214
     28 CAN        38.2842   -1.9742   16.9113 C.ar        1 MOL       0.0754
     29 NAE        38.7483   -1.3154   18.0236 N.am        1 MOL      -0.1796
     30 CBT        38.0345   -0.2088   18.5981 C.3         1 MOL       0.0445
     31 SAB        40.1605   -1.8392   18.7985 S.o2        1 MOL       0.0593
     32 OAC        39.8095   -2.4661   20.2160 O.2         1 MOL      -0.1500
     33 OAD        40.8573   -3.0159   17.9850 O.2         1 MOL      -0.1500
     34 CAA        41.4031   -0.5502   18.9934 C.3         1 MOL       0.0790
     35 CAS        37.0207   -2.6028   16.9186 C.ar        1 MOL      -0.0214
     36 CAR        36.5007   -3.2558   15.7706 C.ar        1 MOL       0.0398
     37 CAL        35.2646   -3.8990   15.8000 C.2         1 MOL       0.2041
     38 OAM        34.5870   -3.9467   14.7727 O.2         1 MOL      -0.3845
     39 NBQ        34.8143   -4.4717   16.9109 N.am        1 MOL      -0.2723
     40 CBR        33.6268   -5.2723   17.0580 C.3         1 MOL       0.0723
     41 CBS        33.4296   -5.6312   18.5535 C.3         1 MOL      -0.0320
     42 CAI        33.6647   -6.5158   16.2267 C.ar        1 MOL      -0.0183
     43 CAH        32.5134   -6.9562   15.5276 C.ar        1 MOL      -0.0582
     44 CAG        32.5379   -8.1394   14.7692 C.ar        1 MOL      -0.0685
     45 CAF        33.7210   -8.8963   14.6791 C.ar        1 MOL      -0.0687
     46 CAK        34.8740   -8.4714   15.3637 C.ar        1 MOL      -0.0685
     47 CAJ        34.8432   -7.3005   16.1381 C.ar        1 MOL      -0.0582
     48 H1         47.4041    1.8841   14.1800 H           1 MOL       0.0233
     49 H2         46.6716    0.3770   13.5991 H           1 MOL       0.0233
     50 H3         45.7063    1.5250   14.5391 H           1 MOL       0.0233
     51 H4         46.0258    3.2322   12.6930 H           1 MOL       0.0315
     52 H5         46.8534    2.5249   10.4647 H           1 MOL       0.0233
     53 H6         47.2086    0.9031   11.0852 H           1 MOL       0.0233
     54 H7         48.1029    2.3058   11.6963 H           1 MOL       0.0233
     55 H8         44.4423    2.1521   11.0119 H           1 MOL       0.0522
     56 H9         43.9000    2.1773   12.6744 H           1 MOL       0.0522
     57 H10        44.4289   -0.0706   12.9314 H           1 MOL       0.1853
     58 H11        44.0140   -2.0916   12.3531 H           1 MOL       0.1125
     59 H12        45.1569   -3.8608   11.1280 H           1 MOL       0.0674
     60 H13        46.6692   -3.4998    9.3034 H           1 MOL       0.0258
     61 H14        46.3804   -1.7509    9.2999 H           1 MOL       0.0258
     62 H15        45.0970   -2.8695    8.7721 H           1 MOL       0.0258
     63 H16        47.1980   -3.1275   11.6196 H           1 MOL       0.2102
     64 H17        43.1249   -3.4217   10.2590 H           1 MOL       0.2037
     65 H18        42.7671   -1.8767    9.7737 H           1 MOL       0.2037
     66 H19        40.8767   -2.8011   10.6507 H           1 MOL       0.0839
     67 H20        41.4272   -1.4950   11.6935 H           1 MOL       0.0839
     68 H21        42.5829   -3.3178   13.0808 H           1 MOL       0.0632
     69 H22        41.7717   -5.5645   13.1506 H           1 MOL       0.0450
     70 H23        42.5372   -5.2162   11.6342 H           1 MOL       0.0450
     71 H24        39.1488   -5.4938   13.2278 H           1 MOL       0.0557
     72 H25        37.2621   -6.5503   12.1574 H           1 MOL       0.0599
     73 H26        37.4462   -7.3596    9.8697 H           1 MOL       0.0559
     74 H27        39.5301   -7.0666    8.6468 H           1 MOL       0.0599
     75 H28        41.4028   -5.9547    9.6766 H           1 MOL       0.0557
     76 H29        41.0060   -3.1943   14.4899 H           1 MOL       0.1852
     77 H30        36.9431   -3.7531   13.7641 H           1 MOL       0.0576
     78 H31        39.9738   -1.5724   15.7133 H           1 MOL       0.0566
     79 H32        37.1352    0.0480   18.0310 H           1 MOL       0.0517
     80 H33        38.6719    0.6777   18.6169 H           1 MOL       0.0517
     81 H34        37.7336   -0.4435   19.6213 H           1 MOL       0.0517
     82 H35        42.3086   -0.9826   19.4178 H           1 MOL       0.0487
     83 H36        41.0285    0.2237   19.6628 H           1 MOL       0.0487
     84 H37        41.6331   -0.1054   18.0259 H           1 MOL       0.0487
     85 H38        36.4645   -2.5684   17.7738 H           1 MOL       0.0566
     86 H39        35.3799   -4.3961   17.7008 H           1 MOL       0.1875
     87 H40        32.7765   -4.6470   16.7615 H           1 MOL       0.0716
     88 H41        32.5132   -6.2050   18.6853 H           1 MOL       0.0274
     89 H42        33.3532   -4.7238   19.1532 H           1 MOL       0.0274
     90 H43        34.2679   -6.2202   18.9260 H           1 MOL       0.0274
     91 H44        31.6399   -6.4276   15.5817 H           1 MOL       0.0557
     92 H45        31.6951   -8.4589   14.2831 H           1 MOL       0.0599
     93 H46        33.7420   -9.7543   14.1187 H           1 MOL       0.0559
     94 H47        35.7349   -9.0215   15.2986 H           1 MOL       0.0599
     95 H48        35.6901   -7.0158   16.6340 H           1 MOL       0.0557
@<TRIPOS>BOND
     1     1     2   1
     2     2     3   1
     3     2     4   1
     4     4     5   1
     5     5     6  am
     6     6     7   2
     7     6     8   1
     8     8     9   1
     9     8    12   1
    10     9    10   1
    11     9    11   1
    12    12    13   1
    13    13    14   1
    14    14    15   1
    15    14    22   1
    16    15    16   1
    17    16    17  ar
    18    16    21  ar
    19    17    18  ar
    20    18    19  ar
    21    19    20  ar
    22    20    21  ar
    23    22    23  am
    24    23    24   2
    25    23    25   1
    26    25    26  ar
    27    25    27  ar
    28    26    36  ar
    29    27    28  ar
    30    28    29   1
    31    28    35  ar
    32    29    30   1
    33    29    31  am
    34    31    32   2
    35    31    33   2
    36    31    34   1
    37    35    36  ar
    38    36    37   1
    39    37    38   2
    40    37    39  am
    41    39    40   1
    42    40    41   1
    43    40    42   1
    44    42    43  ar
    45    42    47  ar
    46    43    44  ar
    47    44    45  ar
    48    45    46  ar
    49    46    47  ar
    50     1    48   1
    51     1    49   1
    52     1    50   1
    53     2    51   1
    54     3    52   1
    55     3    53   1
    56     3    54   1
    57     4    55   1
    58     4    56   1
    59     5    57   1
    60     8    58   1
    61     9    59   1
    62    10    60   1
    63    10    61   1
    64    10    62   1
    65    11    63   1
    66    12    64   1
    67    12    65   1
    68    13    66   1
    69    13    67   1
    70    14    68   1
    71    15    69   1
    72    15    70   1
    73    17    71   1
    74    18    72   1
    75    19    73   1
    76    20    74   1
    77    21    75   1
    78    22    76   1
    79    26    77   1
    80    27    78   1
    81    30    79   1
    82    30    80   1
    83    30    81   1
    84    34    82   1
    85    34    83   1
    86    34    84   1
    87    35    85   1
    88    39    86   1
    89    40    87   1
    90    41    88   1
    91    41    89   1
    92    41    90   1
    93    43    91   1
    94    44    92   1
    95    45    93   1
    96    46    94   1
    97    47    95   1
@<TRIPOS>SUBSTRUCTURE
     1  MOL      1

