@<TRIPOS>MOLECULE
4gid_ligand_075
    95    97
SMALL
GAST_HUCK
****
This file was generated by PARSER (from files_GN.cpp)

@<TRIPOS>ATOM
      1 CBK        38.4940   -8.4303    8.8293 C.3         1 MOL      -0.0608
      2 CBL        38.6797   -6.8946    8.6975 C.3         1 MOL      -0.0265
      3 CBM        40.1639   -6.5359    8.4182 C.3         1 MOL      -0.0608
      4 CBN        37.7117   -6.2537    7.6586 C.3         1 MOL       0.0334
      5 NBO        36.3523   -6.2028    8.1120 N.am        1 MOL      -0.2820
      6 CBP        35.6866   -5.1267    8.5302 C.2         1 MOL       0.2271
      7 OBV        36.2452   -4.0384    8.6190 O.2         1 MOL      -0.3908
      8 CBG        34.2595   -5.2045    8.8043 C.3         1 MOL       0.0928
      9 CBH        33.5144   -3.9100    8.3474 C.3         1 MOL       0.1121
     10 CBJ        33.0131   -3.9254    6.8783 C.3         1 MOL      -0.0314
     11 OBI        32.3873   -3.7029    9.2004 O.3         1 MOL      -0.3840
     12 NBF        33.9399   -5.4404   10.2416 N.4         1 MOL       0.2497
     13 CAX        34.6339   -6.5258   10.9847 C.3         1 MOL      -0.0062
     14 CAW        35.8929   -6.0181   11.7785 C.3         1 MOL       0.0906
     15 CAY        37.0596   -7.0618   11.7740 C.3         1 MOL       0.0089
     16 CAZ        38.4696   -6.6077   12.0007 C.ar        1 MOL      -0.0406
     17 CBA        39.4905   -7.5931   11.9694 C.ar        1 MOL      -0.0603
     18 CBB        40.8501   -7.2399   12.0397 C.ar        1 MOL      -0.0686
     19 CBC        41.2253   -5.8935   12.1455 C.ar        1 MOL      -0.0687
     20 CBD        40.2379   -4.8980   12.1746 C.ar        1 MOL      -0.0686
     21 CBE        38.8749   -5.2493   12.1098 C.ar        1 MOL      -0.0603
     22 NAV        35.5410   -5.7442   13.1490 N.am        1 MOL      -0.2761
     23 CAT        35.7583   -4.6518   13.8884 C.2         1 MOL       0.2026
     24 OAU        36.3440   -3.7125   13.3680 O.2         1 MOL      -0.3847
     25 CAP        35.2560   -4.5258   15.2022 C.ar        1 MOL       0.0397
     26 CAQ        35.3543   -3.3057   15.9250 C.ar        1 MOL      -0.0393
     27 CAO        34.6038   -5.6002   15.8560 C.ar        1 MOL      -0.0214
     28 CAN        33.9810   -5.4618   17.1128 C.ar        1 MOL       0.0754
     29 NAE        33.3351   -6.5175   17.6978 N.am        1 MOL      -0.1796
     30 CBT        33.7107   -7.0058   18.9957 C.3         1 MOL       0.0445
     31 SAB        31.9617   -7.1640   16.9382 S.o2        1 MOL       0.0593
     32 OAC        31.5673   -8.5468   17.6167 O.2         1 MOL      -0.1500
     33 OAD        30.7006   -6.2396   17.2248 O.2         1 MOL      -0.1500
     34 CAA        32.0952   -7.4933   15.1693 C.3         1 MOL       0.0790
     35 CAS        34.0660   -4.2197   17.7724 C.ar        1 MOL      -0.0214
     36 CAR        34.7834   -3.1345   17.2153 C.ar        1 MOL       0.0398
     37 CAL        34.9229   -1.9436   17.9326 C.2         1 MOL       0.2041
     38 OAM        33.9711   -1.5045   18.5757 O.2         1 MOL      -0.3845
     39 NBQ        36.0926   -1.3102   17.9924 N.am        1 MOL      -0.2723
     40 CBR        36.3758   -0.1009   18.7127 C.3         1 MOL       0.0723
     41 CBS        37.6717    0.5459   18.1606 C.3         1 MOL      -0.0320
     42 CAI        36.4729   -0.3123   20.1934 C.ar        1 MOL      -0.0183
     43 CAH        35.5390    0.2895   21.0718 C.ar        1 MOL      -0.0582
     44 CAG        35.6298    0.0995   22.4627 C.ar        1 MOL      -0.0685
     45 CAF        36.6556   -0.6992   22.9984 C.ar        1 MOL      -0.0687
     46 CAK        37.5833   -1.3170   22.1400 C.ar        1 MOL      -0.0685
     47 CAJ        37.4883   -1.1294   20.7489 C.ar        1 MOL      -0.0582
     48 H1         39.0975   -8.8094    9.6577 H           1 MOL       0.0233
     49 H2         38.7931   -8.9507    7.9212 H           1 MOL       0.0233
     50 H3         37.4489   -8.6749    9.0337 H           1 MOL       0.0233
     51 H4         38.4389   -6.4600    9.6681 H           1 MOL       0.0315
     52 H5         40.2917   -5.4533    8.4006 H           1 MOL       0.0233
     53 H6         40.4900   -6.9374    7.4626 H           1 MOL       0.0233
     54 H7         40.8085   -6.9378    9.2044 H           1 MOL       0.0233
     55 H8         37.7297   -6.8336    6.7376 H           1 MOL       0.0522
     56 H9         38.0624   -5.2539    7.3994 H           1 MOL       0.0522
     57 H10        35.8467   -7.0283    8.0401 H           1 MOL       0.1853
     58 H11        33.8249   -6.0369    8.2452 H           1 MOL       0.1125
     59 H12        34.1793   -3.0491    8.4723 H           1 MOL       0.0674
     60 H13        32.4841   -2.9972    6.6540 H           1 MOL       0.0258
     61 H14        32.3339   -4.7621    6.7166 H           1 MOL       0.0258
     62 H15        33.8499   -4.0127    6.1836 H           1 MOL       0.0258
     63 H16        32.2679   -2.7296    9.2555 H           1 MOL       0.2102
     64 H17        32.9406   -5.6521   10.2878 H           1 MOL       0.2037
     65 H18        34.0857   -4.5741   10.7565 H           1 MOL       0.2037
     66 H19        34.8752   -7.3369   10.2939 H           1 MOL       0.0839
     67 H20        33.9036   -6.9404   11.6863 H           1 MOL       0.0839
     68 H21        36.2454   -5.1107   11.2905 H           1 MOL       0.0632
     69 H22        37.0700   -7.5539   10.8010 H           1 MOL       0.0450
     70 H23        36.8105   -7.8406   12.5029 H           1 MOL       0.0450
     71 H24        39.2471   -8.5822   11.8662 H           1 MOL       0.0557
     72 H25        41.5646   -7.9702   11.9842 H           1 MOL       0.0599
     73 H26        42.2136   -5.6374   12.1795 H           1 MOL       0.0559
     74 H27        40.5080   -3.9113   12.2182 H           1 MOL       0.0599
     75 H28        38.1934   -4.4925   12.0939 H           1 MOL       0.0557
     76 H29        35.0626   -6.4637   13.5795 H           1 MOL       0.1852
     77 H30        35.8306   -2.5110   15.4984 H           1 MOL       0.0576
     78 H31        34.5727   -6.5216   15.4227 H           1 MOL       0.0566
     79 H32        34.6117   -6.5191   19.3829 H           1 MOL       0.0517
     80 H33        33.9105   -8.0787   18.9440 H           1 MOL       0.0517
     81 H34        32.9005   -6.8299   19.7081 H           1 MOL       0.0517
     82 H35        31.2311   -8.0740   14.8393 H           1 MOL       0.0487
     83 H36        33.0079   -8.0567   14.9669 H           1 MOL       0.0487
     84 H37        32.1172   -6.5518   14.6198 H           1 MOL       0.0487
     85 H38        33.6225   -4.1266   18.6931 H           1 MOL       0.0566
     86 H39        36.8283   -1.6995   17.4917 H           1 MOL       0.1875
     87 H40        35.5584    0.5894   18.4848 H           1 MOL       0.0716
     88 H41        37.8743    1.4898   18.6742 H           1 MOL       0.0274
     89 H42        37.5587    0.7531   17.0945 H           1 MOL       0.0274
     90 H43        38.5299   -0.1170   18.2941 H           1 MOL       0.0274
     91 H44        34.7853    0.8768   20.7055 H           1 MOL       0.0557
     92 H45        34.9523    0.5456   23.0856 H           1 MOL       0.0599
     93 H46        36.7259   -0.8318   24.0089 H           1 MOL       0.0559
     94 H47        38.3282   -1.8985   22.5283 H           1 MOL       0.0599
     95 H48        38.1690   -1.5923   20.1415 H           1 MOL       0.0557
@<TRIPOS>BOND
     1     1     2   1
     2     2     3   1
     3     2     4   1
     4     4     5   1
     5     5     6  am
     6     6     7   2
     7     6     8   1
     8     8     9   1
     9     8    12   1
    10     9    10   1
    11     9    11   1
    12    12    13   1
    13    13    14   1
    14    14    15   1
    15    14    22   1
    16    15    16   1
    17    16    17  ar
    18    16    21  ar
    19    17    18  ar
    20    18    19  ar
    21    19    20  ar
    22    20    21  ar
    23    22    23  am
    24    23    24   2
    25    23    25   1
    26    25    26  ar
    27    25    27  ar
    28    26    36  ar
    29    27    28  ar
    30    28    29   1
    31    28    35  ar
    32    29    30   1
    33    29    31  am
    34    31    32   2
    35    31    33   2
    36    31    34   1
    37    35    36  ar
    38    36    37   1
    39    37    38   2
    40    37    39  am
    41    39    40   1
    42    40    41   1
    43    40    42   1
    44    42    43  ar
    45    42    47  ar
    46    43    44  ar
    47    44    45  ar
    48    45    46  ar
    49    46    47  ar
    50     1    48   1
    51     1    49   1
    52     1    50   1
    53     2    51   1
    54     3    52   1
    55     3    53   1
    56     3    54   1
    57     4    55   1
    58     4    56   1
    59     5    57   1
    60     8    58   1
    61     9    59   1
    62    10    60   1
    63    10    61   1
    64    10    62   1
    65    11    63   1
    66    12    64   1
    67    12    65   1
    68    13    66   1
    69    13    67   1
    70    14    68   1
    71    15    69   1
    72    15    70   1
    73    17    71   1
    74    18    72   1
    75    19    73   1
    76    20    74   1
    77    21    75   1
    78    22    76   1
    79    26    77   1
    80    27    78   1
    81    30    79   1
    82    30    80   1
    83    30    81   1
    84    34    82   1
    85    34    83   1
    86    34    84   1
    87    35    85   1
    88    39    86   1
    89    40    87   1
    90    41    88   1
    91    41    89   1
    92    41    90   1
    93    43    91   1
    94    44    92   1
    95    45    93   1
    96    46    94   1
    97    47    95   1
@<TRIPOS>SUBSTRUCTURE
     1  MOL      1

