@<TRIPOS>MOLECULE
4gid_ligand_089
    95    97
SMALL
GAST_HUCK
****
This file was generated by PARSER (from files_GN.cpp)

@<TRIPOS>ATOM
      1 CBK        49.0758   -3.9026   15.4345 C.3         1 MOL      -0.0608
      2 CBL        49.4962   -2.6041   14.6946 C.3         1 MOL      -0.0265
      3 CBM        50.4851   -2.9065   13.5336 C.3         1 MOL      -0.0608
      4 CBN        48.2704   -1.7711   14.2111 C.3         1 MOL       0.0334
      5 NBO        47.5468   -2.3951   13.1364 N.am        1 MOL      -0.2820
      6 CBP        46.6602   -1.7925   12.3493 C.2         1 MOL       0.2271
      7 OBV        46.3941   -0.6069   12.5083 O.2         1 MOL      -0.3908
      8 CBG        46.1119   -2.4963   11.1840 C.3         1 MOL       0.0928
      9 CBH        47.0311   -2.3656    9.9263 C.3         1 MOL       0.1121
     10 CBJ        48.4964   -2.8280   10.1168 C.3         1 MOL      -0.0314
     11 OBI        46.4745   -3.1437    8.8636 O.3         1 MOL      -0.3840
     12 NBF        44.7754   -1.9602   10.7845 N.4         1 MOL       0.2497
     13 CAX        43.5543   -2.3371   11.5352 C.3         1 MOL      -0.0062
     14 CAW        43.0462   -3.7925   11.3005 C.3         1 MOL       0.0906
     15 CAY        43.1358   -4.2483    9.8026 C.3         1 MOL       0.0089
     16 CAZ        42.2418   -5.3749    9.4008 C.ar        1 MOL      -0.0406
     17 CBA        42.3148   -6.6263   10.0569 C.ar        1 MOL      -0.0603
     18 CBB        41.4250   -7.6638    9.7223 C.ar        1 MOL      -0.0686
     19 CBC        40.4634   -7.4735    8.7144 C.ar        1 MOL      -0.0687
     20 CBD        40.3954   -6.2438    8.0362 C.ar        1 MOL      -0.0686
     21 CBE        41.2851   -5.2091    8.3694 C.ar        1 MOL      -0.0603
     22 NAV        41.7374   -3.9585   11.8820 N.am        1 MOL      -0.2761
     23 CAT        40.5919   -3.4824   11.4157 C.2         1 MOL       0.2026
     24 OAU        40.5319   -2.8079   10.4006 O.2         1 MOL      -0.3847
     25 CAP        39.4164   -3.8692   11.9920 C.ar        1 MOL       0.0397
     26 CAQ        38.9110   -3.1939   13.1203 C.ar        1 MOL      -0.0393
     27 CAO        38.6670   -4.9174   11.4201 C.ar        1 MOL      -0.0214
     28 CAN        37.4033   -5.2574   11.9307 C.ar        1 MOL       0.0754
     29 NAE        36.6392   -6.1817   11.2848 N.am        1 MOL      -0.1796
     30 CBT        36.7044   -7.5683   11.6165 C.3         1 MOL       0.0445
     31 SAB        35.6737   -5.6888    9.9854 S.o2        1 MOL       0.0593
     32 OAC        34.1312   -5.8701   10.3346 O.2         1 MOL      -0.1500
     33 OAD        35.8724   -4.1322    9.7220 O.2         1 MOL      -0.1500
     34 CAA        36.0561   -6.5026    8.4201 C.3         1 MOL       0.0790
     35 CAS        36.9159   -4.5822   13.0692 C.ar        1 MOL      -0.0214
     36 CAR        37.6622   -3.5484   13.6978 C.ar        1 MOL       0.0398
     37 CAL        37.1923   -2.8770   14.8390 C.2         1 MOL       0.2041
     38 OAM        37.6294   -1.7579   15.1123 O.2         1 MOL      -0.3845
     39 NBQ        36.3221   -3.4472   15.6684 N.am        1 MOL      -0.2723
     40 CBR        35.7833   -2.9597   16.9153 C.3         1 MOL       0.0723
     41 CBS        35.1977   -1.5175   16.8138 C.3         1 MOL      -0.0320
     42 CAI        36.6723   -3.1274   18.1184 C.ar        1 MOL      -0.0183
     43 CAH        38.0660   -3.3794   18.0279 C.ar        1 MOL      -0.0582
     44 CAG        38.8516   -3.5503   19.1806 C.ar        1 MOL      -0.0685
     45 CAF        38.2632   -3.4760   20.4546 C.ar        1 MOL      -0.0687
     46 CAK        36.8839   -3.2316   20.5715 C.ar        1 MOL      -0.0685
     47 CAJ        36.1010   -3.0575   19.4171 C.ar        1 MOL      -0.0582
     48 H1         49.9568   -4.4546   15.7671 H           1 MOL       0.0233
     49 H2         48.4904   -4.5469   14.7761 H           1 MOL       0.0233
     50 H3         48.4724   -3.6616   16.3111 H           1 MOL       0.0233
     51 H4         50.0348   -1.9879   15.4224 H           1 MOL       0.0315
     52 H5         50.7312   -1.9894   12.9959 H           1 MOL       0.0233
     53 H6         50.0471   -3.6150   12.8300 H           1 MOL       0.0233
     54 H7         51.4106   -3.3347   13.9211 H           1 MOL       0.0233
     55 H8         48.6419   -0.7989   13.8793 H           1 MOL       0.0522
     56 H9         47.5867   -1.5961   15.0489 H           1 MOL       0.0522
     57 H10        47.7796   -3.3096   12.9217 H           1 MOL       0.1853
     58 H11        46.0087   -3.5589   11.4186 H           1 MOL       0.1125
     59 H12        47.0422   -1.3220    9.6024 H           1 MOL       0.0674
     60 H13        49.0126   -2.8506    9.1504 H           1 MOL       0.0258
     61 H14        48.5306   -3.8313   10.5532 H           1 MOL       0.0258
     62 H15        49.0314   -2.1357   10.7639 H           1 MOL       0.0258
     63 H16        46.9646   -2.8658    8.0514 H           1 MOL       0.2102
     64 H17        44.6164   -2.2263    9.8097 H           1 MOL       0.2037
     65 H18        44.8423   -0.9388   10.8014 H           1 MOL       0.2037
     66 H19        42.7829   -1.6409   11.2006 H           1 MOL       0.0839
     67 H20        43.7027   -2.1542   12.6009 H           1 MOL       0.0839
     68 H21        43.7035   -4.4520   11.8736 H           1 MOL       0.0632
     69 H22        44.1619   -4.5453    9.5827 H           1 MOL       0.0450
     70 H23        42.9250   -3.3788    9.1647 H           1 MOL       0.0450
     71 H24        42.9969   -6.7804   10.8031 H           1 MOL       0.0557
     72 H25        41.4728   -8.5593   10.2170 H           1 MOL       0.0599
     73 H26        39.8102   -8.2237    8.4774 H           1 MOL       0.0559
     74 H27        39.6976   -6.0953    7.3058 H           1 MOL       0.0599
     75 H28        41.2149   -4.3198    7.8665 H           1 MOL       0.0557
     76 H29        41.6739   -4.5471   12.6609 H           1 MOL       0.1852
     77 H30        39.4649   -2.4336   13.5278 H           1 MOL       0.0576
     78 H31        39.0204   -5.4212   10.5993 H           1 MOL       0.0566
     79 H32        37.4084   -7.7745   12.4229 H           1 MOL       0.0517
     80 H33        37.0209   -8.1509   10.7507 H           1 MOL       0.0517
     81 H34        35.7172   -7.9116   11.9327 H           1 MOL       0.0517
     82 H35        35.4404   -6.0779    7.6245 H           1 MOL       0.0487
     83 H36        35.8496   -7.5707    8.4961 H           1 MOL       0.0487
     84 H37        37.1094   -6.3531    8.1782 H           1 MOL       0.0487
     85 H38        35.9882   -4.8284   13.4195 H           1 MOL       0.0566
     86 H39        36.0228   -4.3357   15.4285 H           1 MOL       0.1875
     87 H40        34.9256   -3.6212   17.0885 H           1 MOL       0.0716
     88 H41        34.5099   -1.3227   17.6383 H           1 MOL       0.0274
     89 H42        34.6508   -1.3942   15.8769 H           1 MOL       0.0274
     90 H43        35.9977   -0.7728   16.8546 H           1 MOL       0.0274
     91 H44        38.5297   -3.4503   17.1249 H           1 MOL       0.0557
     92 H45        39.8569   -3.7295   19.0942 H           1 MOL       0.0599
     93 H46        38.8344   -3.6013   21.2928 H           1 MOL       0.0559
     94 H47        36.4524   -3.1815   21.4956 H           1 MOL       0.0599
     95 H48        35.0965   -2.8918   19.5300 H           1 MOL       0.0557
@<TRIPOS>BOND
     1     1     2   1
     2     2     3   1
     3     2     4   1
     4     4     5   1
     5     5     6  am
     6     6     7   2
     7     6     8   1
     8     8     9   1
     9     8    12   1
    10     9    10   1
    11     9    11   1
    12    12    13   1
    13    13    14   1
    14    14    15   1
    15    14    22   1
    16    15    16   1
    17    16    17  ar
    18    16    21  ar
    19    17    18  ar
    20    18    19  ar
    21    19    20  ar
    22    20    21  ar
    23    22    23  am
    24    23    24   2
    25    23    25   1
    26    25    26  ar
    27    25    27  ar
    28    26    36  ar
    29    27    28  ar
    30    28    29   1
    31    28    35  ar
    32    29    30   1
    33    29    31  am
    34    31    32   2
    35    31    33   2
    36    31    34   1
    37    35    36  ar
    38    36    37   1
    39    37    38   2
    40    37    39  am
    41    39    40   1
    42    40    41   1
    43    40    42   1
    44    42    43  ar
    45    42    47  ar
    46    43    44  ar
    47    44    45  ar
    48    45    46  ar
    49    46    47  ar
    50     1    48   1
    51     1    49   1
    52     1    50   1
    53     2    51   1
    54     3    52   1
    55     3    53   1
    56     3    54   1
    57     4    55   1
    58     4    56   1
    59     5    57   1
    60     8    58   1
    61     9    59   1
    62    10    60   1
    63    10    61   1
    64    10    62   1
    65    11    63   1
    66    12    64   1
    67    12    65   1
    68    13    66   1
    69    13    67   1
    70    14    68   1
    71    15    69   1
    72    15    70   1
    73    17    71   1
    74    18    72   1
    75    19    73   1
    76    20    74   1
    77    21    75   1
    78    22    76   1
    79    26    77   1
    80    27    78   1
    81    30    79   1
    82    30    80   1
    83    30    81   1
    84    34    82   1
    85    34    83   1
    86    34    84   1
    87    35    85   1
    88    39    86   1
    89    40    87   1
    90    41    88   1
    91    41    89   1
    92    41    90   1
    93    43    91   1
    94    44    92   1
    95    45    93   1
    96    46    94   1
    97    47    95   1
@<TRIPOS>SUBSTRUCTURE
     1  MOL      1

