@<TRIPOS>MOLECULE
4gid_ligand_056
    95    97
SMALL
GAST_HUCK
****
This file was generated by PARSER (from files_GN.cpp)

@<TRIPOS>ATOM
      1 CBK        33.6774   -5.8498   10.6505 C.3         1 MOL      -0.0608
      2 CBL        34.7889   -6.4031   11.5844 C.3         1 MOL      -0.0265
      3 CBM        34.2373   -7.5493   12.4710 C.3         1 MOL      -0.0608
      4 CBN        36.0675   -6.8560   10.8001 C.3         1 MOL       0.0334
      5 NBO        37.1255   -5.8987   10.9255 N.am        1 MOL      -0.2820
      6 CBP        38.2929   -6.0764   11.5358 C.2         1 MOL       0.2271
      7 OBV        38.5687   -7.1420   12.0752 O.2         1 MOL      -0.3908
      8 CBG        39.2620   -4.9873   11.6162 C.3         1 MOL       0.0928
      9 CBH        40.6165   -5.3118   10.8879 C.3         1 MOL       0.1121
     10 CBJ        41.6430   -6.1401   11.7031 C.3         1 MOL      -0.0314
     11 OBI        40.3950   -5.9700    9.6383 O.3         1 MOL      -0.3840
     12 NBF        39.4085   -4.6613   13.0554 N.4         1 MOL       0.2497
     13 CAX        40.1732   -3.4464   13.4514 C.3         1 MOL      -0.0062
     14 CAW        39.3013   -2.2468   13.9363 C.3         1 MOL       0.0906
     15 CAY        40.0983   -1.2448   14.8446 C.3         1 MOL       0.0089
     16 CAZ        40.0614   -1.4926   16.3222 C.ar        1 MOL      -0.0406
     17 CBA        40.7115   -2.6068   16.9102 C.ar        1 MOL      -0.0603
     18 CBB        40.6737   -2.8258   18.2988 C.ar        1 MOL      -0.0686
     19 CBC        39.9980   -1.9221   19.1367 C.ar        1 MOL      -0.0687
     20 CBD        39.3678   -0.7977   18.5802 C.ar        1 MOL      -0.0686
     21 CBE        39.3835   -0.5969   17.1869 C.ar        1 MOL      -0.0603
     22 NAV        38.1032   -2.6886   14.5938 N.am        1 MOL      -0.2761
     23 CAT        36.9330   -2.0554   14.6243 C.2         1 MOL       0.2026
     24 OAU        36.7623   -0.9739   14.0914 O.2         1 MOL      -0.3847
     25 CAP        35.9801   -2.5541   15.4982 C.ar        1 MOL       0.0397
     26 CAQ        35.5708   -1.7660   16.5989 C.ar        1 MOL      -0.0393
     27 CAO        35.4725   -3.8643   15.3593 C.ar        1 MOL      -0.0214
     28 CAN        34.5730   -4.3904   16.3146 C.ar        1 MOL       0.0754
     29 NAE        33.9380   -5.5726   16.1014 N.am        1 MOL      -0.1796
     30 CBT        34.6075   -6.8282   16.2641 C.3         1 MOL       0.0445
     31 SAB        32.3622   -5.5018   15.4855 S.o2        1 MOL       0.0593
     32 OAC        31.5754   -4.3704   16.2737 O.2         1 MOL      -0.1500
     33 OAD        32.4017   -5.0155   13.9719 O.2         1 MOL      -0.1500
     34 CAA        31.3541   -6.9883   15.6677 C.3         1 MOL       0.0790
     35 CAS        34.2602   -3.6298   17.4585 C.ar        1 MOL      -0.0214
     36 CAR        34.7426   -2.3135   17.6021 C.ar        1 MOL       0.0398
     37 CAL        34.4211   -1.5723   18.7213 C.2         1 MOL       0.2041
     38 OAM        33.8252   -0.5177   18.5817 O.2         1 MOL      -0.3845
     39 NBQ        34.8546   -1.9932   19.9087 N.am        1 MOL      -0.2723
     40 CBR        34.6858   -1.3584   21.1882 C.3         1 MOL       0.0723
     41 CBS        33.1714   -1.2219   21.5305 C.3         1 MOL      -0.0320
     42 CAI        35.4625   -0.0868   21.4130 C.ar        1 MOL      -0.0183
     43 CAH        35.4701    0.5027   22.7032 C.ar        1 MOL      -0.0582
     44 CAG        36.1894    1.6820   22.9686 C.ar        1 MOL      -0.0685
     45 CAF        36.9389    2.2935   21.9518 C.ar        1 MOL      -0.0687
     46 CAK        36.9751    1.7189   20.6709 C.ar        1 MOL      -0.0685
     47 CAJ        36.2501    0.5391   20.4095 C.ar        1 MOL      -0.0582
     48 H1         32.8423   -5.4617   11.2350 H           1 MOL       0.0233
     49 H2         33.3005   -6.6351    9.9939 H           1 MOL       0.0233
     50 H3         34.0681   -5.0371   10.0371 H           1 MOL       0.0233
     51 H4         35.0615   -5.5963   12.2709 H           1 MOL       0.0315
     52 H5         35.0192   -7.9072   13.1425 H           1 MOL       0.0233
     53 H6         33.8882   -8.3797   11.8539 H           1 MOL       0.0233
     54 H7         33.4124   -7.2015   13.0889 H           1 MOL       0.0233
     55 H8         35.8508   -6.9643    9.7359 H           1 MOL       0.0522
     56 H9         36.3972   -7.8420   11.1383 H           1 MOL       0.0522
     57 H10        36.9590   -5.0246   10.5411 H           1 MOL       0.1853
     58 H11        38.8347   -4.0992   11.1379 H           1 MOL       0.1125
     59 H12        41.0999   -4.3653   10.6369 H           1 MOL       0.0674
     60 H13        42.5240   -6.3502   11.0928 H           1 MOL       0.0258
     61 H14        41.2116   -7.0887   12.0229 H           1 MOL       0.0258
     62 H15        41.9703   -5.5873   12.5851 H           1 MOL       0.0258
     63 H16        40.0298   -6.8533    9.8681 H           1 MOL       0.2102
     64 H17        39.8575   -5.4651   13.4972 H           1 MOL       0.2037
     65 H18        38.4706   -4.5913   13.4523 H           1 MOL       0.2037
     66 H19        40.8182   -3.1010   12.6402 H           1 MOL       0.0839
     67 H20        40.8385   -3.7699   14.2433 H           1 MOL       0.0839
     68 H21        39.0120   -1.7165   13.0200 H           1 MOL       0.0632
     69 H22        39.6966   -0.2497   14.6385 H           1 MOL       0.0450
     70 H23        41.1430   -1.2065   14.5272 H           1 MOL       0.0450
     71 H24        41.2531   -3.2549   16.3412 H           1 MOL       0.0557
     72 H25        41.1474   -3.6387   18.7043 H           1 MOL       0.0599
     73 H26        39.9796   -2.0743   20.1472 H           1 MOL       0.0559
     74 H27        38.9000   -0.1260   19.1881 H           1 MOL       0.0599
     75 H28        38.8984    0.2194   16.8084 H           1 MOL       0.0557
     76 H29        38.1910   -3.4644   15.1666 H           1 MOL       0.1852
     77 H30        35.9335   -0.8110   16.7045 H           1 MOL       0.0576
     78 H31        35.7275   -4.4345   14.5473 H           1 MOL       0.0566
     79 H32        35.6420   -6.7095   16.5869 H           1 MOL       0.0517
     80 H33        34.6111   -7.3756   15.3241 H           1 MOL       0.0517
     81 H34        34.0939   -7.4250   17.0180 H           1 MOL       0.0517
     82 H35        30.3454   -6.7903   15.3069 H           1 MOL       0.0487
     83 H36        31.3098   -7.2686   16.7190 H           1 MOL       0.0487
     84 H37        31.7882   -7.8056   15.0947 H           1 MOL       0.0487
     85 H38        33.6351   -4.0259   18.1641 H           1 MOL       0.0566
     86 H39        35.3507   -2.8255   19.9102 H           1 MOL       0.1875
     87 H40        35.0948   -2.0824   21.8983 H           1 MOL       0.0716
     88 H41        33.0247   -1.0425   22.5964 H           1 MOL       0.0274
     89 H42        32.6383   -2.1413   21.2776 H           1 MOL       0.0274
     90 H43        32.7192   -0.3961   20.9792 H           1 MOL       0.0274
     91 H44        34.9495    0.0726   23.4724 H           1 MOL       0.0557
     92 H45        36.1729    2.0936   23.9054 H           1 MOL       0.0599
     93 H46        37.4653    3.1507   22.1420 H           1 MOL       0.0559
     94 H47        37.5296    2.1539   19.9305 H           1 MOL       0.0599
     95 H48        36.3222    0.1469   19.4728 H           1 MOL       0.0557
@<TRIPOS>BOND
     1     1     2   1
     2     2     3   1
     3     2     4   1
     4     4     5   1
     5     5     6  am
     6     6     7   2
     7     6     8   1
     8     8     9   1
     9     8    12   1
    10     9    10   1
    11     9    11   1
    12    12    13   1
    13    13    14   1
    14    14    15   1
    15    14    22   1
    16    15    16   1
    17    16    17  ar
    18    16    21  ar
    19    17    18  ar
    20    18    19  ar
    21    19    20  ar
    22    20    21  ar
    23    22    23  am
    24    23    24   2
    25    23    25   1
    26    25    26  ar
    27    25    27  ar
    28    26    36  ar
    29    27    28  ar
    30    28    29   1
    31    28    35  ar
    32    29    30   1
    33    29    31  am
    34    31    32   2
    35    31    33   2
    36    31    34   1
    37    35    36  ar
    38    36    37   1
    39    37    38   2
    40    37    39  am
    41    39    40   1
    42    40    41   1
    43    40    42   1
    44    42    43  ar
    45    42    47  ar
    46    43    44  ar
    47    44    45  ar
    48    45    46  ar
    49    46    47  ar
    50     1    48   1
    51     1    49   1
    52     1    50   1
    53     2    51   1
    54     3    52   1
    55     3    53   1
    56     3    54   1
    57     4    55   1
    58     4    56   1
    59     5    57   1
    60     8    58   1
    61     9    59   1
    62    10    60   1
    63    10    61   1
    64    10    62   1
    65    11    63   1
    66    12    64   1
    67    12    65   1
    68    13    66   1
    69    13    67   1
    70    14    68   1
    71    15    69   1
    72    15    70   1
    73    17    71   1
    74    18    72   1
    75    19    73   1
    76    20    74   1
    77    21    75   1
    78    22    76   1
    79    26    77   1
    80    27    78   1
    81    30    79   1
    82    30    80   1
    83    30    81   1
    84    34    82   1
    85    34    83   1
    86    34    84   1
    87    35    85   1
    88    39    86   1
    89    40    87   1
    90    41    88   1
    91    41    89   1
    92    41    90   1
    93    43    91   1
    94    44    92   1
    95    45    93   1
    96    46    94   1
    97    47    95   1
@<TRIPOS>SUBSTRUCTURE
     1  MOL      1

