@<TRIPOS>MOLECULE
4gid_ligand_072
    95    97
SMALL
GAST_HUCK
****
This file was generated by PARSER (from files_GN.cpp)

@<TRIPOS>ATOM
      1 CBK        34.4889   -6.3907   14.2904 C.3         1 MOL      -0.0608
      2 CBL        34.3911   -7.6706   13.4166 C.3         1 MOL      -0.0265
      3 CBM        33.4310   -8.6948   14.0832 C.3         1 MOL      -0.0608
      4 CBN        33.9803   -7.3604   11.9394 C.3         1 MOL       0.0334
      5 NBO        35.1032   -6.9539   11.1438 N.am        1 MOL      -0.2820
      6 CBP        35.1413   -5.9778   10.2399 C.2         1 MOL       0.2271
      7 OBV        34.1311   -5.3490    9.9467 O.2         1 MOL      -0.3908
      8 CBG        36.4090   -5.5953    9.6140 C.3         1 MOL       0.0928
      9 CBH        36.5788   -6.2291    8.1922 C.3         1 MOL       0.1121
     10 CBJ        35.7783   -5.4733    7.1010 C.3         1 MOL      -0.0314
     11 OBI        37.9449   -6.2340    7.7694 O.3         1 MOL      -0.3840
     12 NBF        37.5943   -5.8823   10.4698 N.4         1 MOL       0.2497
     13 CAX        37.5905   -5.3292   11.8412 C.3         1 MOL      -0.0062
     14 CAW        38.9845   -4.8717   12.3502 C.3         1 MOL       0.0906
     15 CAY        40.0667   -6.0026   12.4095 C.3         1 MOL       0.0089
     16 CAZ        41.0529   -5.9407   11.2920 C.ar        1 MOL      -0.0406
     17 CBA        42.2417   -5.1811   11.4276 C.ar        1 MOL      -0.0603
     18 CBB        43.1708   -5.1016   10.3731 C.ar        1 MOL      -0.0686
     19 CBC        42.9216   -5.7740    9.1643 C.ar        1 MOL      -0.0687
     20 CBD        41.7430   -6.5268    9.0120 C.ar        1 MOL      -0.0686
     21 CBE        40.8186   -6.6138   10.0699 C.ar        1 MOL      -0.0603
     22 NAV        38.7444   -4.3288   13.6601 N.am        1 MOL      -0.2761
     23 CAT        39.1856   -3.1735   14.1405 C.2         1 MOL       0.2026
     24 OAU        40.0250   -2.5453   13.5040 O.2         1 MOL      -0.3847
     25 CAP        38.7205   -2.6634   15.3549 C.ar        1 MOL       0.0397
     26 CAQ        39.5601   -1.8452   16.1501 C.ar        1 MOL      -0.0393
     27 CAO        37.3990   -2.8981   15.8155 C.ar        1 MOL      -0.0214
     28 CAN        36.9142   -2.3148   17.0080 C.ar        1 MOL       0.0754
     29 NAE        35.6271   -2.5285   17.4329 N.am        1 MOL      -0.1796
     30 CBT        35.3279   -3.0031   18.7573 C.3         1 MOL       0.0445
     31 SAB        34.3270   -2.1120   16.4300 S.o2        1 MOL       0.0593
     32 OAC        33.3088   -1.2085   17.2527 O.2         1 MOL      -0.1500
     33 OAD        34.8360   -1.1912   15.2360 O.2         1 MOL      -0.1500
     34 CAA        33.4424   -3.5222   15.7396 C.3         1 MOL       0.0790
     35 CAS        37.7703   -1.4787   17.7558 C.ar        1 MOL      -0.0214
     36 CAR        39.1004   -1.2511   17.3443 C.ar        1 MOL       0.0398
     37 CAL        39.9443   -0.4759   18.1095 C.2         1 MOL       0.2041
     38 OAM        39.5626    0.6223   18.4869 O.2         1 MOL      -0.3845
     39 NBQ        41.0895   -1.0093   18.5165 N.am        1 MOL      -0.2723
     40 CBR        42.0974   -0.4095   19.3447 C.3         1 MOL       0.0723
     41 CBS        42.9255   -1.5415   20.0049 C.3         1 MOL      -0.0320
     42 CAI        41.5485    0.5380   20.3670 C.ar        1 MOL      -0.0183
     43 CAH        42.2069    1.7611   20.6493 C.ar        1 MOL      -0.0582
     44 CAG        41.6360    2.7097   21.5183 C.ar        1 MOL      -0.0685
     45 CAF        40.3956    2.4456   22.1260 C.ar        1 MOL      -0.0687
     46 CAK        39.7533    1.2160   21.8988 C.ar        1 MOL      -0.0685
     47 CAJ        40.3287    0.2650   21.0345 C.ar        1 MOL      -0.0582
     48 H1         34.9043   -6.6361   15.2711 H           1 MOL       0.0233
     49 H2         33.5037   -5.9447   14.4310 H           1 MOL       0.0233
     50 H3         35.1366   -5.6510   13.8236 H           1 MOL       0.0233
     51 H4         35.3820   -8.1322   13.4058 H           1 MOL       0.0315
     52 H5         33.4230   -9.6276   13.5176 H           1 MOL       0.0233
     53 H6         32.4113   -8.3076   14.1280 H           1 MOL       0.0233
     54 H7         33.7619   -8.9207   15.0999 H           1 MOL       0.0233
     55 H8         33.1887   -6.6084   11.9351 H           1 MOL       0.0522
     56 H9         33.5792   -8.2624   11.4680 H           1 MOL       0.0522
     57 H10        35.9250   -7.4440   11.2979 H           1 MOL       0.1853
     58 H11        36.4062   -4.5064    9.4898 H           1 MOL       0.1125
     59 H12        36.2493   -7.2734    8.2039 H           1 MOL       0.0674
     60 H13        35.8899   -5.9741    6.1370 H           1 MOL       0.0258
     61 H14        36.1489   -4.4494    7.0021 H           1 MOL       0.0258
     62 H15        34.7167   -5.4401    7.3531 H           1 MOL       0.0258
     63 H16        38.3697   -6.9671    8.2637 H           1 MOL       0.2102
     64 H17        38.4008   -5.4865    9.9913 H           1 MOL       0.2037
     65 H18        37.7230   -6.8945   10.5296 H           1 MOL       0.2037
     66 H19        37.2078   -6.1020   12.5100 H           1 MOL       0.0839
     67 H20        36.9132   -4.4677   11.8927 H           1 MOL       0.0839
     68 H21        39.3206   -4.0805   11.6729 H           1 MOL       0.0632
     69 H22        39.5866   -6.9860   12.4330 H           1 MOL       0.0450
     70 H23        40.6286   -5.9316   13.3457 H           1 MOL       0.0450
     71 H24        42.4384   -4.6795   12.2979 H           1 MOL       0.0557
     72 H25        44.0225   -4.5480   10.4830 H           1 MOL       0.0599
     73 H26        43.5917   -5.7110    8.3941 H           1 MOL       0.0559
     74 H27        41.5536   -7.0062    8.1285 H           1 MOL       0.0599
     75 H28        39.9671   -7.1635    9.9377 H           1 MOL       0.0557
     76 H29        38.1462   -4.8391   14.2298 H           1 MOL       0.1852
     77 H30        40.5243   -1.6700   15.8498 H           1 MOL       0.0576
     78 H31        36.7614   -3.4819   15.2699 H           1 MOL       0.0566
     79 H32        36.2258   -3.2889   19.3129 H           1 MOL       0.0517
     80 H33        34.6799   -3.8825   18.7016 H           1 MOL       0.0517
     81 H34        34.8151   -2.2227   19.3259 H           1 MOL       0.0517
     82 H35        32.5346   -3.1801   15.2387 H           1 MOL       0.0487
     83 H36        33.1736   -4.2098   16.5420 H           1 MOL       0.0487
     84 H37        34.0833   -4.0358   15.0237 H           1 MOL       0.0487
     85 H38        37.4203   -1.0427   18.6154 H           1 MOL       0.0566
     86 H39        41.2556   -1.9232   18.2313 H           1 MOL       0.1875
     87 H40        42.7703    0.1272   18.6685 H           1 MOL       0.0716
     88 H41        43.7343   -1.1201   20.6037 H           1 MOL       0.0274
     89 H42        43.3631   -2.1815   19.2349 H           1 MOL       0.0274
     90 H43        42.2911   -2.1576   20.6462 H           1 MOL       0.0274
     91 H44        43.1077    1.9777   20.2142 H           1 MOL       0.0557
     92 H45        42.1144    3.5960   21.6977 H           1 MOL       0.0599
     93 H46        39.9608    3.1487   22.7298 H           1 MOL       0.0559
     94 H47        38.8606    1.0157   22.3584 H           1 MOL       0.0599
     95 H48        39.8369   -0.6149   20.8702 H           1 MOL       0.0557
@<TRIPOS>BOND
     1     1     2   1
     2     2     3   1
     3     2     4   1
     4     4     5   1
     5     5     6  am
     6     6     7   2
     7     6     8   1
     8     8     9   1
     9     8    12   1
    10     9    10   1
    11     9    11   1
    12    12    13   1
    13    13    14   1
    14    14    15   1
    15    14    22   1
    16    15    16   1
    17    16    17  ar
    18    16    21  ar
    19    17    18  ar
    20    18    19  ar
    21    19    20  ar
    22    20    21  ar
    23    22    23  am
    24    23    24   2
    25    23    25   1
    26    25    26  ar
    27    25    27  ar
    28    26    36  ar
    29    27    28  ar
    30    28    29   1
    31    28    35  ar
    32    29    30   1
    33    29    31  am
    34    31    32   2
    35    31    33   2
    36    31    34   1
    37    35    36  ar
    38    36    37   1
    39    37    38   2
    40    37    39  am
    41    39    40   1
    42    40    41   1
    43    40    42   1
    44    42    43  ar
    45    42    47  ar
    46    43    44  ar
    47    44    45  ar
    48    45    46  ar
    49    46    47  ar
    50     1    48   1
    51     1    49   1
    52     1    50   1
    53     2    51   1
    54     3    52   1
    55     3    53   1
    56     3    54   1
    57     4    55   1
    58     4    56   1
    59     5    57   1
    60     8    58   1
    61     9    59   1
    62    10    60   1
    63    10    61   1
    64    10    62   1
    65    11    63   1
    66    12    64   1
    67    12    65   1
    68    13    66   1
    69    13    67   1
    70    14    68   1
    71    15    69   1
    72    15    70   1
    73    17    71   1
    74    18    72   1
    75    19    73   1
    76    20    74   1
    77    21    75   1
    78    22    76   1
    79    26    77   1
    80    27    78   1
    81    30    79   1
    82    30    80   1
    83    30    81   1
    84    34    82   1
    85    34    83   1
    86    34    84   1
    87    35    85   1
    88    39    86   1
    89    40    87   1
    90    41    88   1
    91    41    89   1
    92    41    90   1
    93    43    91   1
    94    44    92   1
    95    45    93   1
    96    46    94   1
    97    47    95   1
@<TRIPOS>SUBSTRUCTURE
     1  MOL      1

