@<TRIPOS>MOLECULE
4gid_ligand_078
    95    97
SMALL
GAST_HUCK
****
This file was generated by PARSER (from files_GN.cpp)

@<TRIPOS>ATOM
      1 CBK        48.0227   -3.5872    9.3389 C.3         1 MOL      -0.0608
      2 CBL        47.9239   -3.5060   10.8877 C.3         1 MOL      -0.0265
      3 CBM        49.2536   -2.9844   11.5019 C.3         1 MOL      -0.0608
      4 CBN        46.7277   -2.6257   11.3544 C.3         1 MOL       0.0334
      5 NBO        45.4590   -3.1483   10.9521 N.am        1 MOL      -0.2820
      6 CBP        44.2918   -2.5465   11.1389 C.2         1 MOL       0.2271
      7 OBV        44.2336   -1.4457   11.6680 O.2         1 MOL      -0.3908
      8 CBG        43.0775   -3.2056   10.6910 C.3         1 MOL       0.0928
      9 CBH        43.0882   -3.5816    9.1679 C.3         1 MOL       0.1121
     10 CBJ        43.7370   -2.5258    8.2346 C.3         1 MOL      -0.0314
     11 OBI        43.7416   -4.8467    8.9565 O.3         1 MOL      -0.3840
     12 NBF        41.8302   -2.4192   10.9565 N.4         1 MOL       0.2497
     13 CAX        41.1725   -2.5333   12.2840 C.3         1 MOL      -0.0062
     14 CAW        40.5601   -3.9306   12.6567 C.3         1 MOL       0.0906
     15 CAY        40.0409   -4.7511   11.4271 C.3         1 MOL       0.0089
     16 CAZ        39.5297   -6.1145   11.7312 C.ar        1 MOL      -0.0406
     17 CBA        40.4165   -7.1731   12.0439 C.ar        1 MOL      -0.0603
     18 CBB        39.9437   -8.4936   12.1915 C.ar        1 MOL      -0.0686
     19 CBC        38.5743   -8.7722   12.0306 C.ar        1 MOL      -0.0687
     20 CBD        37.6805   -7.7307   11.7327 C.ar        1 MOL      -0.0686
     21 CBE        38.1528   -6.4099   11.5851 C.ar        1 MOL      -0.0603
     22 NAV        39.5756   -3.7932   13.6957 N.am        1 MOL      -0.2761
     23 CAT        38.3638   -3.2627   13.5857 C.2         1 MOL       0.2026
     24 OAU        37.9331   -2.8268   12.5264 O.2         1 MOL      -0.3847
     25 CAP        37.5553   -3.1594   14.6919 C.ar        1 MOL       0.0397
     26 CAQ        36.2824   -3.7807   14.7172 C.ar        1 MOL      -0.0393
     27 CAO        37.9459   -2.3778   15.8028 C.ar        1 MOL      -0.0214
     28 CAN        37.0942   -2.2212   16.9175 C.ar        1 MOL       0.0754
     29 NAE        37.4211   -1.3581   17.9330 N.am        1 MOL      -0.1796
     30 CBT        36.6586   -0.1686   18.1791 C.3         1 MOL       0.0445
     31 SAB        38.7592   -1.6904   18.9171 S.o2        1 MOL       0.0593
     32 OAC        38.4769   -1.1451   20.3874 O.2         1 MOL      -0.1500
     33 OAD        38.9207   -3.2576   19.1229 O.2         1 MOL      -0.1500
     34 CAA        40.3088   -0.9661   18.3380 C.3         1 MOL       0.0790
     35 CAS        35.8574   -2.8925   16.9362 C.ar        1 MOL      -0.0214
     36 CAR        35.4327   -3.6982   15.8518 C.ar        1 MOL       0.0398
     37 CAL        34.2226   -4.4004   15.9008 C.2         1 MOL       0.2041
     38 OAM        33.6249   -4.6682   14.8634 O.2         1 MOL      -0.3845
     39 NBQ        33.7870   -4.8948   17.0580 N.am        1 MOL      -0.2723
     40 CBR        32.6585   -5.7594   17.2703 C.3         1 MOL       0.0723
     41 CBS        32.6090   -6.1437   18.7733 C.3         1 MOL      -0.0320
     42 CAI        32.6744   -7.0064   16.4446 C.ar        1 MOL      -0.0183
     43 CAH        31.4835   -7.4896   15.8550 C.ar        1 MOL      -0.0582
     44 CAG        31.4865   -8.6697   15.0916 C.ar        1 MOL      -0.0685
     45 CAF        32.6869   -9.3757   14.8933 C.ar        1 MOL      -0.0687
     46 CAK        33.8829   -8.9048   15.4671 C.ar        1 MOL      -0.0685
     47 CAJ        33.8731   -7.7356   16.2483 C.ar        1 MOL      -0.0582
     48 H1         48.8794   -4.1965    9.0522 H           1 MOL       0.0233
     49 H2         48.1386   -2.5919    8.9059 H           1 MOL       0.0233
     50 H3         47.1267   -4.0473    8.9171 H           1 MOL       0.0233
     51 H4         47.7600   -4.5219   11.2657 H           1 MOL       0.0315
     52 H5         49.1898   -2.9738   12.5891 H           1 MOL       0.0233
     53 H6         49.4642   -1.9735   11.1554 H           1 MOL       0.0233
     54 H7         50.0800   -3.6320   11.2182 H           1 MOL       0.0233
     55 H8         46.8518   -1.6110   10.9560 H           1 MOL       0.0522
     56 H9         46.7344   -2.5599   12.4489 H           1 MOL       0.0522
     57 H10        45.4571   -3.9973   10.4911 H           1 MOL       0.1853
     58 H11        43.0171   -4.1429   11.2451 H           1 MOL       0.1125
     59 H12        42.0546   -3.7291    8.8144 H           1 MOL       0.0674
     60 H13        43.5093   -2.7585    7.1960 H           1 MOL       0.0258
     61 H14        44.8211   -2.5252    8.3616 H           1 MOL       0.0258
     62 H15        43.3557   -1.5335    8.4636 H           1 MOL       0.0258
     63 H16        43.1789   -5.5080    9.4208 H           1 MOL       0.2102
     64 H17        41.1181   -2.7061   10.2834 H           1 MOL       0.2037
     65 H18        42.0293   -1.4393   10.7648 H           1 MOL       0.2037
     66 H19        40.3716   -1.7808   12.2801 H           1 MOL       0.0839
     67 H20        41.8817   -2.2271   13.0690 H           1 MOL       0.0839
     68 H21        41.3858   -4.5134   13.0853 H           1 MOL       0.0632
     69 H22        40.8440   -4.8904   10.7094 H           1 MOL       0.0450
     70 H23        39.2906   -4.1586   10.9143 H           1 MOL       0.0450
     71 H24        41.4251   -6.9915   12.1295 H           1 MOL       0.0557
     72 H25        40.5985   -9.2488   12.4002 H           1 MOL       0.0599
     73 H26        38.2322   -9.7239   12.1277 H           1 MOL       0.0559
     74 H27        36.6865   -7.9260   11.6094 H           1 MOL       0.0599
     75 H28        37.4846   -5.6693   11.3478 H           1 MOL       0.0557
     76 H29        39.8269   -4.1365   14.5604 H           1 MOL       0.1852
     77 H30        35.9935   -4.3473   13.9082 H           1 MOL       0.0576
     78 H31        38.8367   -1.8687   15.7722 H           1 MOL       0.0566
     79 H32        35.8477   -0.0439   17.4613 H           1 MOL       0.0517
     80 H33        37.3064    0.7054   18.1043 H           1 MOL       0.0517
     81 H34        36.2216   -0.2034   19.1770 H           1 MOL       0.0517
     82 H35        41.0690   -1.0547   19.1185 H           1 MOL       0.0487
     83 H36        40.1520    0.0900   18.1024 H           1 MOL       0.0487
     84 H37        40.6482   -1.4913   17.4425 H           1 MOL       0.0487
     85 H38        35.2613   -2.7729   17.7523 H           1 MOL       0.0566
     86 H39        34.3191   -4.6929   17.8463 H           1 MOL       0.1875
     87 H40        31.7609   -5.1714   17.0535 H           1 MOL       0.0716
     88 H41        31.7265   -6.7566   18.9867 H           1 MOL       0.0274
     89 H42        32.5595   -5.2461   19.3996 H           1 MOL       0.0274
     90 H43        33.5036   -6.7092   19.0576 H           1 MOL       0.0274
     91 H44        30.5981   -6.9956   15.9896 H           1 MOL       0.0557
     92 H45        30.6160   -9.0216   14.6832 H           1 MOL       0.0599
     93 H46        32.6914  -10.2390   14.3376 H           1 MOL       0.0559
     94 H47        34.7559   -9.4195   15.3214 H           1 MOL       0.0599
     95 H48        34.7491   -7.4185   16.6644 H           1 MOL       0.0557
@<TRIPOS>BOND
     1     1     2   1
     2     2     3   1
     3     2     4   1
     4     4     5   1
     5     5     6  am
     6     6     7   2
     7     6     8   1
     8     8     9   1
     9     8    12   1
    10     9    10   1
    11     9    11   1
    12    12    13   1
    13    13    14   1
    14    14    15   1
    15    14    22   1
    16    15    16   1
    17    16    17  ar
    18    16    21  ar
    19    17    18  ar
    20    18    19  ar
    21    19    20  ar
    22    20    21  ar
    23    22    23  am
    24    23    24   2
    25    23    25   1
    26    25    26  ar
    27    25    27  ar
    28    26    36  ar
    29    27    28  ar
    30    28    29   1
    31    28    35  ar
    32    29    30   1
    33    29    31  am
    34    31    32   2
    35    31    33   2
    36    31    34   1
    37    35    36  ar
    38    36    37   1
    39    37    38   2
    40    37    39  am
    41    39    40   1
    42    40    41   1
    43    40    42   1
    44    42    43  ar
    45    42    47  ar
    46    43    44  ar
    47    44    45  ar
    48    45    46  ar
    49    46    47  ar
    50     1    48   1
    51     1    49   1
    52     1    50   1
    53     2    51   1
    54     3    52   1
    55     3    53   1
    56     3    54   1
    57     4    55   1
    58     4    56   1
    59     5    57   1
    60     8    58   1
    61     9    59   1
    62    10    60   1
    63    10    61   1
    64    10    62   1
    65    11    63   1
    66    12    64   1
    67    12    65   1
    68    13    66   1
    69    13    67   1
    70    14    68   1
    71    15    69   1
    72    15    70   1
    73    17    71   1
    74    18    72   1
    75    19    73   1
    76    20    74   1
    77    21    75   1
    78    22    76   1
    79    26    77   1
    80    27    78   1
    81    30    79   1
    82    30    80   1
    83    30    81   1
    84    34    82   1
    85    34    83   1
    86    34    84   1
    87    35    85   1
    88    39    86   1
    89    40    87   1
    90    41    88   1
    91    41    89   1
    92    41    90   1
    93    43    91   1
    94    44    92   1
    95    45    93   1
    96    46    94   1
    97    47    95   1
@<TRIPOS>SUBSTRUCTURE
     1  MOL      1

