@<TRIPOS>MOLECULE
4gid_ligand_025
    95    97
SMALL
GAST_HUCK
****
This file was generated by PARSER (from files_GN.cpp)

@<TRIPOS>ATOM
      1 CBK        40.0837   -0.8299   14.1906 C.3         1 MOL      -0.0608
      2 CBL        39.7684   -2.3488   14.0924 C.3         1 MOL      -0.0265
      3 CBM        38.5077   -2.6056   13.2231 C.3         1 MOL      -0.0608
      4 CBN        40.9913   -3.1869   13.6137 C.3         1 MOL       0.0334
      5 NBO        41.5755   -2.6884   12.4042 N.am        1 MOL      -0.2820
      6 CBP        42.6703   -3.1534   11.8183 C.2         1 MOL       0.2271
      7 OBV        43.2750   -4.1113   12.2832 O.2         1 MOL      -0.3908
      8 CBG        43.1431   -2.5295   10.5835 C.3         1 MOL       0.0928
      9 CBH        42.9883   -3.4254    9.3105 C.3         1 MOL       0.1121
     10 CBJ        41.5156   -3.6751    8.9180 C.3         1 MOL      -0.0314
     11 OBI        43.6686   -2.7840    8.2246 O.3         1 MOL      -0.3840
     12 NBF        44.4994   -1.9460   10.7400 N.4         1 MOL       0.2497
     13 CAX        45.7118   -2.7535   10.4471 C.3         1 MOL      -0.0062
     14 CAW        46.9418   -1.8068   10.2537 C.3         1 MOL       0.0906
     15 CAY        47.9164   -2.2236    9.0965 C.3         1 MOL       0.0089
     16 CAZ        49.0843   -3.0553    9.4951 C.ar        1 MOL      -0.0406
     17 CBA        48.8979   -4.3837    9.9378 C.ar        1 MOL      -0.0603
     18 CBB        49.9989   -5.1690   10.3278 C.ar        1 MOL      -0.0686
     19 CBC        51.2978   -4.6313   10.2806 C.ar        1 MOL      -0.0687
     20 CBD        51.4948   -3.3123    9.8336 C.ar        1 MOL      -0.0686
     21 CBE        50.3956   -2.5304    9.4418 C.ar        1 MOL      -0.0603
     22 NAV        47.6213   -1.6920   11.5210 N.am        1 MOL      -0.2761
     23 CAT        47.9102   -0.6033   12.2111 C.2         1 MOL       0.2026
     24 OAU        47.6563    0.5167   11.7902 O.2         1 MOL      -0.3847
     25 CAP        48.6782   -0.7527   13.3585 C.ar        1 MOL       0.0397
     26 CAQ        48.1599   -1.4120   14.4972 C.ar        1 MOL      -0.0393
     27 CAO        50.0227   -0.3278   13.3747 C.ar        1 MOL      -0.0214
     28 CAN        50.8532   -0.5887   14.4840 C.ar        1 MOL       0.0754
     29 NAE        52.1752   -0.2165   14.4562 N.am        1 MOL      -0.1796
     30 CBT        52.5639    1.1584   14.3153 C.3         1 MOL       0.0445
     31 SAB        53.3849   -1.3963   14.5651 S.o2        1 MOL       0.0593
     32 OAC        54.0373   -1.3934   16.0125 O.2         1 MOL      -0.1500
     33 OAD        52.7470   -2.8382   14.3469 O.2         1 MOL      -0.1500
     34 CAA        54.6629   -1.2629   13.2989 C.3         1 MOL       0.0790
     35 CAS        50.3085   -1.2483   15.6085 C.ar        1 MOL      -0.0214
     36 CAR        48.9527   -1.6611   15.6466 C.ar        1 MOL       0.0398
     37 CAL        48.4050   -2.3017   16.7688 C.2         1 MOL       0.2041
     38 OAM        47.3889   -1.8556   17.2859 O.2         1 MOL      -0.3845
     39 NBQ        48.9457   -3.4088   17.2665 N.am        1 MOL      -0.2723
     40 CBR        48.4997   -4.1427   18.4215 C.3         1 MOL       0.0723
     41 CBS        49.7302   -4.5639   19.2643 C.3         1 MOL      -0.0320
     42 CAI        47.6643   -5.3251   18.0434 C.ar        1 MOL      -0.0183
     43 CAH        48.2189   -6.4165   17.3284 C.ar        1 MOL      -0.0582
     44 CAG        47.4385   -7.5433   17.0074 C.ar        1 MOL      -0.0685
     45 CAF        46.0882   -7.5956   17.3940 C.ar        1 MOL      -0.0687
     46 CAK        45.5148   -6.5178   18.0886 C.ar        1 MOL      -0.0685
     47 CAJ        46.2967   -5.3914   18.4105 C.ar        1 MOL      -0.0582
     48 H1         39.2425   -0.3035   14.6446 H           1 MOL       0.0233
     49 H2         40.2664   -0.4006   13.2037 H           1 MOL       0.0233
     50 H3         40.9654   -0.6619   14.8121 H           1 MOL       0.0233
     51 H4         39.5280   -2.6901   15.1053 H           1 MOL       0.0315
     52 H5         38.2460   -3.6659   13.2373 H           1 MOL       0.0233
     53 H6         38.6813   -2.3030   12.1896 H           1 MOL       0.0233
     54 H7         37.6587   -2.0412   13.6146 H           1 MOL       0.0233
     55 H8         40.6778   -4.2234   13.4585 H           1 MOL       0.0522
     56 H9         41.7473   -3.1845   14.4019 H           1 MOL       0.0522
     57 H10        41.1192   -1.9467   11.9701 H           1 MOL       0.1853
     58 H11        42.5188   -1.6532   10.3954 H           1 MOL       0.1125
     59 H12        43.4588   -4.4020    9.4774 H           1 MOL       0.0674
     60 H13        41.4634   -4.2891    8.0176 H           1 MOL       0.0258
     61 H14        41.0146   -2.7263    8.7289 H           1 MOL       0.0258
     62 H15        40.9969   -4.1994    9.7230 H           1 MOL       0.0258
     63 H16        43.3932   -3.2320    7.4086 H           1 MOL       0.2102
     64 H17        44.5843   -1.5822   11.6919 H           1 MOL       0.2037
     65 H18        44.5322   -1.1441   10.1014 H           1 MOL       0.2037
     66 H19        45.5467   -3.3347    9.5431 H           1 MOL       0.0839
     67 H20        45.8763   -3.4658   11.2572 H           1 MOL       0.0839
     68 H21        46.5588   -0.8195    9.9676 H           1 MOL       0.0632
     69 H22        48.2769   -1.3075    8.6227 H           1 MOL       0.0450
     70 H23        47.3811   -2.7546    8.3067 H           1 MOL       0.0450
     71 H24        47.9622   -4.7898    9.9754 H           1 MOL       0.0557
     72 H25        49.8570   -6.1291   10.6443 H           1 MOL       0.0599
     73 H26        52.0938   -5.2045   10.5647 H           1 MOL       0.0559
     74 H27        52.4348   -2.9180    9.7855 H           1 MOL       0.0599
     75 H28        50.5661   -1.5745    9.1185 H           1 MOL       0.0557
     76 H29        47.9808   -2.5238   11.8712 H           1 MOL       0.1852
     77 H30        47.1830   -1.7275   14.4814 H           1 MOL       0.0576
     78 H31        50.4218    0.1295   12.5488 H           1 MOL       0.0566
     79 H32        51.7086    1.8399   14.3318 H           1 MOL       0.0517
     80 H33        53.0870    1.3007   13.3683 H           1 MOL       0.0517
     81 H34        53.2279    1.4441   15.1331 H           1 MOL       0.0517
     82 H35        55.3570   -2.1001   13.3848 H           1 MOL       0.0487
     83 H36        55.2115   -0.3292   13.4274 H           1 MOL       0.0487
     84 H37        54.2025   -1.2781   12.3101 H           1 MOL       0.0487
     85 H38        50.9158   -1.4034   16.4163 H           1 MOL       0.0566
     86 H39        49.7125   -3.7757   16.7985 H           1 MOL       0.1875
     87 H40        47.9277   -3.4554   19.0538 H           1 MOL       0.0716
     88 H41        49.4099   -5.0987   20.1613 H           1 MOL       0.0274
     89 H42        50.2884   -3.6781   19.5759 H           1 MOL       0.0274
     90 H43        50.4005   -5.2081   18.6913 H           1 MOL       0.0274
     91 H44        49.1994   -6.3979   17.0367 H           1 MOL       0.0557
     92 H45        47.8548   -8.3258   16.4946 H           1 MOL       0.0599
     93 H46        45.5224   -8.4178   17.1714 H           1 MOL       0.0559
     94 H47        44.5319   -6.5535   18.3663 H           1 MOL       0.0599
     95 H48        45.8604   -4.6242   18.9253 H           1 MOL       0.0557
@<TRIPOS>BOND
     1     1     2   1
     2     2     3   1
     3     2     4   1
     4     4     5   1
     5     5     6  am
     6     6     7   2
     7     6     8   1
     8     8     9   1
     9     8    12   1
    10     9    10   1
    11     9    11   1
    12    12    13   1
    13    13    14   1
    14    14    15   1
    15    14    22   1
    16    15    16   1
    17    16    17  ar
    18    16    21  ar
    19    17    18  ar
    20    18    19  ar
    21    19    20  ar
    22    20    21  ar
    23    22    23  am
    24    23    24   2
    25    23    25   1
    26    25    26  ar
    27    25    27  ar
    28    26    36  ar
    29    27    28  ar
    30    28    29   1
    31    28    35  ar
    32    29    30   1
    33    29    31  am
    34    31    32   2
    35    31    33   2
    36    31    34   1
    37    35    36  ar
    38    36    37   1
    39    37    38   2
    40    37    39  am
    41    39    40   1
    42    40    41   1
    43    40    42   1
    44    42    43  ar
    45    42    47  ar
    46    43    44  ar
    47    44    45  ar
    48    45    46  ar
    49    46    47  ar
    50     1    48   1
    51     1    49   1
    52     1    50   1
    53     2    51   1
    54     3    52   1
    55     3    53   1
    56     3    54   1
    57     4    55   1
    58     4    56   1
    59     5    57   1
    60     8    58   1
    61     9    59   1
    62    10    60   1
    63    10    61   1
    64    10    62   1
    65    11    63   1
    66    12    64   1
    67    12    65   1
    68    13    66   1
    69    13    67   1
    70    14    68   1
    71    15    69   1
    72    15    70   1
    73    17    71   1
    74    18    72   1
    75    19    73   1
    76    20    74   1
    77    21    75   1
    78    22    76   1
    79    26    77   1
    80    27    78   1
    81    30    79   1
    82    30    80   1
    83    30    81   1
    84    34    82   1
    85    34    83   1
    86    34    84   1
    87    35    85   1
    88    39    86   1
    89    40    87   1
    90    41    88   1
    91    41    89   1
    92    41    90   1
    93    43    91   1
    94    44    92   1
    95    45    93   1
    96    46    94   1
    97    47    95   1
@<TRIPOS>SUBSTRUCTURE
     1  MOL      1

