@<TRIPOS>MOLECULE
4gid_ligand_066
    95    97
SMALL
GAST_HUCK
****
This file was generated by PARSER (from files_GN.cpp)

@<TRIPOS>ATOM
      1 CBK        41.1749   -5.6789    8.1226 C.3         1 MOL      -0.0608
      2 CBL        42.2545   -5.0938    9.0788 C.3         1 MOL      -0.0265
      3 CBM        43.5826   -5.8862    8.9604 C.3         1 MOL      -0.0608
      4 CBN        42.4511   -3.5634    8.8480 C.3         1 MOL       0.0334
      5 NBO        43.7241   -3.1201    9.3412 N.am        1 MOL      -0.2820
      6 CBP        44.3931   -2.0249    8.9818 C.2         1 MOL       0.2271
      7 OBV        43.8838   -1.2163    8.2100 O.2         1 MOL      -0.3908
      8 CBG        45.7194   -1.7263    9.5415 C.3         1 MOL       0.0928
      9 CBH        46.7446   -2.9182    9.5584 C.3         1 MOL       0.1121
     10 CBJ        46.9606   -3.6216   10.9300 C.3         1 MOL      -0.0314
     11 OBI        46.3995   -3.8975    8.5653 O.3         1 MOL      -0.3840
     12 NBF        45.6992   -0.9544   10.8216 N.4         1 MOL       0.2497
     13 CAX        44.7574   -1.3360   11.9066 C.3         1 MOL      -0.0062
     14 CAW        43.4051   -0.5412   11.8559 C.3         1 MOL       0.0906
     15 CAY        43.4261    0.7921   12.6861 C.3         1 MOL       0.0089
     16 CAZ        44.7245    1.5266   12.6500 C.ar        1 MOL      -0.0406
     17 CBA        45.2123    2.0431   11.4299 C.ar        1 MOL      -0.0603
     18 CBB        46.5134    2.5695   11.3357 C.ar        1 MOL      -0.0686
     19 CBC        47.3409    2.6068   12.4752 C.ar        1 MOL      -0.0687
     20 CBD        46.8486    2.1597   13.7120 C.ar        1 MOL      -0.0686
     21 CBE        45.5470    1.6387   13.8028 C.ar        1 MOL      -0.0603
     22 NAV        42.1843   -1.2326   12.1972 N.am        1 MOL      -0.2761
     23 CAT        41.9320   -2.4403   12.7067 C.2         1 MOL       0.2026
     24 OAU        42.8198   -3.2317   13.0046 O.2         1 MOL      -0.3847
     25 CAP        40.6166   -2.8359   12.8863 C.ar        1 MOL       0.0397
     26 CAQ        39.6996   -1.9907   13.5523 C.ar        1 MOL      -0.0393
     27 CAO        40.1714   -4.0799   12.3856 C.ar        1 MOL      -0.0214
     28 CAN        38.8296   -4.5083   12.5310 C.ar        1 MOL       0.0754
     29 NAE        38.3925   -5.6926   11.9759 N.am        1 MOL      -0.1796
     30 CBT        39.1920   -6.8848   11.9723 C.3         1 MOL       0.0445
     31 SAB        36.9104   -5.7600   11.1560 S.o2        1 MOL       0.0593
     32 OAC        36.5514   -4.3472   10.5203 O.2         1 MOL      -0.1500
     33 OAD        37.0403   -6.7121    9.8879 O.2         1 MOL      -0.1500
     34 CAA        35.5222   -6.3140   12.1599 C.3         1 MOL       0.0790
     35 CAS        37.9475   -3.6478   13.2196 C.ar        1 MOL      -0.0214
     36 CAR        38.3601   -2.3905   13.7215 C.ar        1 MOL       0.0398
     37 CAL        37.4398   -1.5646   14.3207 C.2         1 MOL       0.2041
     38 OAM        36.5174   -1.1490   13.6279 O.2         1 MOL      -0.3845
     39 NBQ        37.4722   -1.3540   15.6344 N.am        1 MOL      -0.2723
     40 CBR        36.3840   -0.7996   16.4009 C.3         1 MOL       0.0723
     41 CBS        36.8927   -0.2007   17.7375 C.3         1 MOL      -0.0320
     42 CAI        35.3153   -1.8445   16.5447 C.ar        1 MOL      -0.0183
     43 CAH        34.3601   -2.0153   15.5106 C.ar        1 MOL      -0.0582
     44 CAG        33.4159   -3.0574   15.5538 C.ar        1 MOL      -0.0685
     45 CAF        33.3967   -3.9451   16.6431 C.ar        1 MOL      -0.0687
     46 CAK        34.3344   -3.7964   17.6787 C.ar        1 MOL      -0.0685
     47 CAJ        35.2887   -2.7612   17.6268 C.ar        1 MOL      -0.0582
     48 H1         41.0392   -6.7505    8.3118 H           1 MOL       0.0233
     49 H2         41.4678   -5.5390    7.0734 H           1 MOL       0.0233
     50 H3         40.2163   -5.1791    8.2947 H           1 MOL       0.0233
     51 H4         41.8936   -5.2275   10.1004 H           1 MOL       0.0315
     52 H5         44.2654   -5.5729    9.7498 H           1 MOL       0.0233
     53 H6         44.0719   -5.6968    7.9992 H           1 MOL       0.0233
     54 H7         43.4096   -6.9652    9.0662 H           1 MOL       0.0233
     55 H8         41.6787   -3.0256    9.4093 H           1 MOL       0.0522
     56 H9         42.3137   -3.3245    7.7769 H           1 MOL       0.0522
     57 H10        44.1544   -3.7156    9.9699 H           1 MOL       0.1853
     58 H11        46.1745   -1.0047    8.8583 H           1 MOL       0.1125
     59 H12        47.7239   -2.5010    9.2750 H           1 MOL       0.0674
     60 H13        47.6462   -4.4702   10.7943 H           1 MOL       0.0258
     61 H14        46.0086   -3.9970   11.3297 H           1 MOL       0.0258
     62 H15        47.4116   -2.9198   11.6505 H           1 MOL       0.0258
     63 H16        47.2203   -4.4273    8.4595 H           1 MOL       0.2102
     64 H17        45.5074    0.0224   10.5770 H           1 MOL       0.2037
     65 H18        46.6451   -0.9947   11.2148 H           1 MOL       0.2037
     66 H19        45.2613   -1.1511   12.8603 H           1 MOL       0.0839
     67 H20        44.5999   -2.4072   11.8506 H           1 MOL       0.0839
     68 H21        43.2553   -0.2499   10.8165 H           1 MOL       0.0632
     69 H22        43.1653    0.5627   13.7253 H           1 MOL       0.0450
     70 H23        42.6460    1.4643   12.3162 H           1 MOL       0.0450
     71 H24        44.6496    1.9771   10.5789 H           1 MOL       0.0557
     72 H25        46.8773    2.9044   10.4390 H           1 MOL       0.0599
     73 H26        48.2969    2.9484   12.4093 H           1 MOL       0.0559
     74 H27        47.4353    2.2063   14.5467 H           1 MOL       0.0599
     75 H28        45.2109    1.2994   14.7054 H           1 MOL       0.0557
     76 H29        41.3806   -0.7218   11.9821 H           1 MOL       0.1852
     77 H30        40.0071   -1.0770   13.9128 H           1 MOL       0.0576
     78 H31        40.8273   -4.6683   11.8708 H           1 MOL       0.0566
     79 H32        39.9997   -6.8436   12.7037 H           1 MOL       0.0517
     80 H33        39.6250   -7.0322   10.9857 H           1 MOL       0.0517
     81 H34        38.5815   -7.7518   12.2140 H           1 MOL       0.0517
     82 H35        34.6039   -6.2837   11.5721 H           1 MOL       0.0487
     83 H36        35.4080   -5.6675   13.0305 H           1 MOL       0.0487
     84 H37        35.7010   -7.3356   12.4963 H           1 MOL       0.0487
     85 H38        36.9794   -3.9332   13.3652 H           1 MOL       0.0566
     86 H39        38.2187   -1.7418   16.1294 H           1 MOL       0.1875
     87 H40        35.9912    0.0619   15.8531 H           1 MOL       0.0716
     88 H41        36.0518    0.1746   18.3222 H           1 MOL       0.0274
     89 H42        37.5716    0.6365   17.5455 H           1 MOL       0.0274
     90 H43        37.4320   -0.9423   18.3279 H           1 MOL       0.0274
     91 H44        34.3777   -1.4094   14.6883 H           1 MOL       0.0557
     92 H45        32.7418   -3.1651   14.7914 H           1 MOL       0.0599
     93 H46        32.7099   -4.7019   16.6746 H           1 MOL       0.0559
     94 H47        34.3283   -4.4497   18.4652 H           1 MOL       0.0599
     95 H48        35.9773   -2.6977   18.3835 H           1 MOL       0.0557
@<TRIPOS>BOND
     1     1     2   1
     2     2     3   1
     3     2     4   1
     4     4     5   1
     5     5     6  am
     6     6     7   2
     7     6     8   1
     8     8     9   1
     9     8    12   1
    10     9    10   1
    11     9    11   1
    12    12    13   1
    13    13    14   1
    14    14    15   1
    15    14    22   1
    16    15    16   1
    17    16    17  ar
    18    16    21  ar
    19    17    18  ar
    20    18    19  ar
    21    19    20  ar
    22    20    21  ar
    23    22    23  am
    24    23    24   2
    25    23    25   1
    26    25    26  ar
    27    25    27  ar
    28    26    36  ar
    29    27    28  ar
    30    28    29   1
    31    28    35  ar
    32    29    30   1
    33    29    31  am
    34    31    32   2
    35    31    33   2
    36    31    34   1
    37    35    36  ar
    38    36    37   1
    39    37    38   2
    40    37    39  am
    41    39    40   1
    42    40    41   1
    43    40    42   1
    44    42    43  ar
    45    42    47  ar
    46    43    44  ar
    47    44    45  ar
    48    45    46  ar
    49    46    47  ar
    50     1    48   1
    51     1    49   1
    52     1    50   1
    53     2    51   1
    54     3    52   1
    55     3    53   1
    56     3    54   1
    57     4    55   1
    58     4    56   1
    59     5    57   1
    60     8    58   1
    61     9    59   1
    62    10    60   1
    63    10    61   1
    64    10    62   1
    65    11    63   1
    66    12    64   1
    67    12    65   1
    68    13    66   1
    69    13    67   1
    70    14    68   1
    71    15    69   1
    72    15    70   1
    73    17    71   1
    74    18    72   1
    75    19    73   1
    76    20    74   1
    77    21    75   1
    78    22    76   1
    79    26    77   1
    80    27    78   1
    81    30    79   1
    82    30    80   1
    83    30    81   1
    84    34    82   1
    85    34    83   1
    86    34    84   1
    87    35    85   1
    88    39    86   1
    89    40    87   1
    90    41    88   1
    91    41    89   1
    92    41    90   1
    93    43    91   1
    94    44    92   1
    95    45    93   1
    96    46    94   1
    97    47    95   1
@<TRIPOS>SUBSTRUCTURE
     1  MOL      1

