@<TRIPOS>MOLECULE
4gid_ligand_053
    95    97
SMALL
GAST_HUCK
****
This file was generated by PARSER (from files_GN.cpp)

@<TRIPOS>ATOM
      1 CBK        28.9687   -0.2963    9.0987 C.3         1 MOL      -0.0608
      2 CBL        29.7201   -1.6532    9.2180 C.3         1 MOL      -0.0265
      3 CBM        29.9133   -2.3219    7.8244 C.3         1 MOL      -0.0608
      4 CBN        31.0372   -1.5070   10.0588 C.3         1 MOL       0.0334
      5 NBO        32.2515   -1.9861    9.4697 N.am        1 MOL      -0.2820
      6 CBP        32.5970   -3.2518    9.2782 C.2         1 MOL       0.2271
      7 OBV        31.8493   -4.1609    9.6213 O.2         1 MOL      -0.3908
      8 CBG        33.8280   -3.5796    8.5664 C.3         1 MOL       0.0928
      9 CBH        33.4933   -3.9425    7.0746 C.3         1 MOL       0.1121
     10 CBJ        34.7067   -4.3491    6.2065 C.3         1 MOL      -0.0314
     11 OBI        32.5154   -4.9850    6.9605 O.3         1 MOL      -0.3840
     12 NBF        34.5521   -4.6347    9.3374 N.4         1 MOL       0.2497
     13 CAX        36.0330   -4.6596    9.2622 C.3         1 MOL      -0.0062
     14 CAW        36.6708   -5.6732   10.2552 C.3         1 MOL       0.0906
     15 CAY        36.3013   -7.1653    9.9735 C.3         1 MOL       0.0089
     16 CAZ        37.4870   -8.0472   10.1537 C.ar        1 MOL      -0.0406
     17 CBA        37.8603   -8.5205   11.4329 C.ar        1 MOL      -0.0603
     18 CBB        39.0352   -9.2771   11.5995 C.ar        1 MOL      -0.0686
     19 CBC        39.8633   -9.5447   10.4946 C.ar        1 MOL      -0.0687
     20 CBD        39.5169   -9.0583    9.2221 C.ar        1 MOL      -0.0686
     21 CBE        38.3356   -8.3155    9.0533 C.ar        1 MOL      -0.0603
     22 NAV        36.2842   -5.3270   11.5946 N.am        1 MOL      -0.2761
     23 CAT        37.0725   -5.0421   12.6171 C.2         1 MOL       0.2026
     24 OAU        38.2980   -5.0952   12.5309 O.2         1 MOL      -0.3847
     25 CAP        36.4966   -4.5334   13.7655 C.ar        1 MOL       0.0397
     26 CAQ        36.8681   -3.2512   14.2141 C.ar        1 MOL      -0.0393
     27 CAO        35.4870   -5.2376   14.4656 C.ar        1 MOL      -0.0214
     28 CAN        34.8831   -4.6839   15.6118 C.ar        1 MOL       0.0754
     29 NAE        33.8843   -5.3594   16.2527 N.am        1 MOL      -0.1796
     30 CBT        34.0688   -5.9045   17.5673 C.3         1 MOL       0.0445
     31 SAB        32.3265   -5.2888   15.5937 S.o2        1 MOL       0.0593
     32 OAC        31.5797   -4.0249   16.1989 O.2         1 MOL      -0.1500
     33 OAD        32.4163   -5.0348   14.0259 O.2         1 MOL      -0.1500
     34 CAA        31.3216   -6.7702   15.8151 C.3         1 MOL       0.0790
     35 CAS        35.2846   -3.4066   16.0555 C.ar        1 MOL      -0.0214
     36 CAR        36.2628   -2.6681   15.3446 C.ar        1 MOL       0.0398
     37 CAL        36.6332   -1.3957   15.7394 C.2         1 MOL       0.2041
     38 OAM        36.6622   -0.4923   14.9062 O.2         1 MOL      -0.3845
     39 NBQ        37.0410   -1.2051   16.9839 N.am        1 MOL      -0.2723
     40 CBR        37.5134    0.0162   17.5794 C.3         1 MOL       0.0723
     41 CBS        39.0289   -0.2194   17.8347 C.3         1 MOL      -0.0320
     42 CAI        36.6883    0.3734   18.7822 C.ar        1 MOL      -0.0183
     43 CAH        37.2071    1.1881   19.8222 C.ar        1 MOL      -0.0582
     44 CAG        36.4187    1.5447   20.9320 C.ar        1 MOL      -0.0685
     45 CAF        35.0824    1.1176   21.0145 C.ar        1 MOL      -0.0687
     46 CAK        34.5318    0.3449   19.9786 C.ar        1 MOL      -0.0685
     47 CAJ        35.3224   -0.0106   18.8726 C.ar        1 MOL      -0.0582
     48 H1         27.9853   -0.4396    8.6521 H           1 MOL       0.0233
     49 H2         29.5399    0.4029    8.4842 H           1 MOL       0.0233
     50 H3         28.8243    0.1431   10.0871 H           1 MOL       0.0233
     51 H4         29.0466   -2.3117    9.7774 H           1 MOL       0.0315
     52 H5         30.2357   -3.3553    7.9444 H           1 MOL       0.0233
     53 H6         30.6621   -1.7862    7.2409 H           1 MOL       0.0233
     54 H7         28.9824   -2.3387    7.2648 H           1 MOL       0.0233
     55 H8         30.8943   -1.9950   11.0253 H           1 MOL       0.0522
     56 H9         31.2212   -0.4550   10.2765 H           1 MOL       0.0522
     57 H10        32.8928   -1.3130    9.1986 H           1 MOL       0.1853
     58 H11        34.4496   -2.6763    8.5387 H           1 MOL       0.1125
     59 H12        33.0600   -3.0460    6.6030 H           1 MOL       0.0674
     60 H13        34.4403   -4.2848    5.1485 H           1 MOL       0.0258
     61 H14        35.0171   -5.3705    6.4339 H           1 MOL       0.0258
     62 H15        35.5361   -3.6714    6.3886 H           1 MOL       0.0258
     63 H16        31.6441   -4.5481    7.0899 H           1 MOL       0.2102
     64 H17        34.1961   -5.5498    9.0564 H           1 MOL       0.2037
     65 H18        34.3204   -4.4915   10.3224 H           1 MOL       0.2037
     66 H19        36.4237   -3.6607    9.4887 H           1 MOL       0.0839
     67 H20        36.3512   -4.9195    8.2495 H           1 MOL       0.0839
     68 H21        37.7513   -5.5458   10.1276 H           1 MOL       0.0632
     69 H22        35.9220   -7.2755    8.9516 H           1 MOL       0.0450
     70 H23        35.4864   -7.4943   10.6267 H           1 MOL       0.0450
     71 H24        37.2877   -8.3056   12.2520 H           1 MOL       0.0557
     72 H25        39.2958   -9.6237   12.5253 H           1 MOL       0.0599
     73 H26        40.7215  -10.0866   10.6184 H           1 MOL       0.0559
     74 H27        40.1240   -9.2420    8.4210 H           1 MOL       0.0599
     75 H28        38.1096   -7.9491    8.1257 H           1 MOL       0.0557
     76 H29        35.3327   -5.1924   11.7400 H           1 MOL       0.1852
     77 H30        37.5811   -2.7252   13.6989 H           1 MOL       0.0576
     78 H31        35.1886   -6.1627   14.1426 H           1 MOL       0.0566
     79 H32        35.1059   -5.8315   17.9047 H           1 MOL       0.0517
     80 H33        33.7953   -6.9612   17.5677 H           1 MOL       0.0517
     81 H34        33.4400   -5.3770   18.2884 H           1 MOL       0.0517
     82 H35        30.3409   -6.6167   15.3625 H           1 MOL       0.0487
     83 H36        31.1966   -6.9726   16.8787 H           1 MOL       0.0487
     84 H37        31.8124   -7.6190   15.3389 H           1 MOL       0.0487
     85 H38        34.8277   -2.9964   16.8755 H           1 MOL       0.0566
     86 H39        37.0499   -1.9886   17.5608 H           1 MOL       0.1875
     87 H40        37.4270    0.8531   16.8806 H           1 MOL       0.0716
     88 H41        39.5188    0.6992   18.1566 H           1 MOL       0.0274
     89 H42        39.5233   -0.5537   16.9176 H           1 MOL       0.0274
     90 H43        39.1722   -0.9819   18.6044 H           1 MOL       0.0274
     91 H44        38.1667    1.5363   19.7878 H           1 MOL       0.0557
     92 H45        36.8166    2.1228   21.6768 H           1 MOL       0.0599
     93 H46        34.5090    1.3789   21.8195 H           1 MOL       0.0559
     94 H47        33.5542    0.0446   20.0258 H           1 MOL       0.0599
     95 H48        34.8797   -0.5553   18.1291 H           1 MOL       0.0557
@<TRIPOS>BOND
     1     1     2   1
     2     2     3   1
     3     2     4   1
     4     4     5   1
     5     5     6  am
     6     6     7   2
     7     6     8   1
     8     8     9   1
     9     8    12   1
    10     9    10   1
    11     9    11   1
    12    12    13   1
    13    13    14   1
    14    14    15   1
    15    14    22   1
    16    15    16   1
    17    16    17  ar
    18    16    21  ar
    19    17    18  ar
    20    18    19  ar
    21    19    20  ar
    22    20    21  ar
    23    22    23  am
    24    23    24   2
    25    23    25   1
    26    25    26  ar
    27    25    27  ar
    28    26    36  ar
    29    27    28  ar
    30    28    29   1
    31    28    35  ar
    32    29    30   1
    33    29    31  am
    34    31    32   2
    35    31    33   2
    36    31    34   1
    37    35    36  ar
    38    36    37   1
    39    37    38   2
    40    37    39  am
    41    39    40   1
    42    40    41   1
    43    40    42   1
    44    42    43  ar
    45    42    47  ar
    46    43    44  ar
    47    44    45  ar
    48    45    46  ar
    49    46    47  ar
    50     1    48   1
    51     1    49   1
    52     1    50   1
    53     2    51   1
    54     3    52   1
    55     3    53   1
    56     3    54   1
    57     4    55   1
    58     4    56   1
    59     5    57   1
    60     8    58   1
    61     9    59   1
    62    10    60   1
    63    10    61   1
    64    10    62   1
    65    11    63   1
    66    12    64   1
    67    12    65   1
    68    13    66   1
    69    13    67   1
    70    14    68   1
    71    15    69   1
    72    15    70   1
    73    17    71   1
    74    18    72   1
    75    19    73   1
    76    20    74   1
    77    21    75   1
    78    22    76   1
    79    26    77   1
    80    27    78   1
    81    30    79   1
    82    30    80   1
    83    30    81   1
    84    34    82   1
    85    34    83   1
    86    34    84   1
    87    35    85   1
    88    39    86   1
    89    40    87   1
    90    41    88   1
    91    41    89   1
    92    41    90   1
    93    43    91   1
    94    44    92   1
    95    45    93   1
    96    46    94   1
    97    47    95   1
@<TRIPOS>SUBSTRUCTURE
     1  MOL      1

