@<TRIPOS>MOLECULE
4gid_ligand_026
    95    97
SMALL
GAST_HUCK
****
This file was generated by PARSER (from files_GN.cpp)

@<TRIPOS>ATOM
      1 CBK        47.5331   -0.8499   11.9849 C.3         1 MOL      -0.0608
      2 CBL        47.9055   -2.0239   11.0362 C.3         1 MOL      -0.0265
      3 CBM        47.6359   -3.3995   11.6999 C.3         1 MOL      -0.0608
      4 CBN        47.2186   -1.9196    9.6444 C.3         1 MOL       0.0334
      5 NBO        45.7843   -1.9434    9.7053 N.am        1 MOL      -0.2820
      6 CBP        44.9713   -2.9164    9.3026 C.2         1 MOL       0.2271
      7 OBV        45.4452   -3.9551    8.8614 O.2         1 MOL      -0.3908
      8 CBG        43.5275   -2.6734    9.2501 C.3         1 MOL       0.0928
      9 CBH        42.8707   -2.0679   10.5463 C.3         1 MOL       0.1121
     10 CBJ        43.4743   -2.4432   11.9234 C.3         1 MOL      -0.0314
     11 OBI        42.9074   -0.6372   10.4859 O.3         1 MOL      -0.3840
     12 NBF        42.6595   -3.7111    8.5986 N.4         1 MOL       0.2497
     13 CAX        42.7055   -5.1869    8.8071 C.3         1 MOL      -0.0062
     14 CAW        42.4365   -5.7333   10.2379 C.3         1 MOL       0.0906
     15 CAY        42.4001   -7.3045   10.3118 C.3         1 MOL       0.0089
     16 CAZ        41.0438   -7.9466   10.2957 C.ar        1 MOL      -0.0406
     17 CBA        40.5271   -8.5803   11.4554 C.ar        1 MOL      -0.0603
     18 CBB        39.2268   -9.1180   11.4671 C.ar        1 MOL      -0.0686
     19 CBC        38.4181   -9.0273   10.3215 C.ar        1 MOL      -0.0687
     20 CBD        38.9201   -8.4235    9.1552 C.ar        1 MOL      -0.0686
     21 CBE        40.2245   -7.8950    9.1409 C.ar        1 MOL      -0.0603
     22 NAV        41.2167   -5.1747   10.7583 N.am        1 MOL      -0.2761
     23 CAT        40.9254   -4.9158   12.0306 C.2         1 MOL       0.2026
     24 OAU        41.8168   -4.9108   12.8715 O.2         1 MOL      -0.3847
     25 CAP        39.6178   -4.5861   12.3915 C.ar        1 MOL       0.0397
     26 CAQ        39.3531   -3.6395   13.4132 C.ar        1 MOL      -0.0393
     27 CAO        38.5154   -5.1607   11.7135 C.ar        1 MOL      -0.0214
     28 CAN        37.1907   -4.8065   12.0307 C.ar        1 MOL       0.0754
     29 NAE        36.1494   -5.3313   11.3204 N.am        1 MOL      -0.1796
     30 CBT        35.7746   -4.7849   10.0473 C.3         1 MOL       0.0445
     31 SAB        35.2711   -6.6113   11.9898 S.o2        1 MOL       0.0593
     32 OAC        36.2901   -7.6672   12.6017 O.2         1 MOL      -0.1500
     33 OAD        34.3299   -6.0888   13.1600 O.2         1 MOL      -0.1500
     34 CAA        34.2601   -7.5346   10.8152 C.3         1 MOL       0.0790
     35 CAS        36.9613   -3.8398   13.0274 C.ar        1 MOL      -0.0214
     36 CAR        38.0324   -3.2213   13.7154 C.ar        1 MOL       0.0398
     37 CAL        37.7855   -2.1665   14.5930 C.2         1 MOL       0.2041
     38 OAM        36.8936   -1.3745   14.3035 O.2         1 MOL      -0.3845
     39 NBQ        38.5236   -1.9792   15.6839 N.am        1 MOL      -0.2723
     40 CBR        38.4086   -0.9014   16.6282 C.3         1 MOL       0.0723
     41 CBS        39.8218   -0.5775   17.1817 C.3         1 MOL      -0.0320
     42 CAI        37.3611   -1.2292   17.6485 C.ar        1 MOL      -0.0183
     43 CAH        36.0050   -0.9072   17.3841 C.ar        1 MOL      -0.0582
     44 CAG        34.9841   -1.2325   18.2968 C.ar        1 MOL      -0.0685
     45 CAF        35.3002   -1.8752   19.5045 C.ar        1 MOL      -0.0687
     46 CAK        36.6364   -2.1980   19.7940 C.ar        1 MOL      -0.0685
     47 CAJ        37.6531   -1.8896   18.8697 C.ar        1 MOL      -0.0582
     48 H1         48.1556   -0.8790   12.8856 H           1 MOL       0.0233
     49 H2         46.4862   -0.9082   12.2913 H           1 MOL       0.0233
     50 H3         47.6933    0.1151   11.4908 H           1 MOL       0.0233
     51 H4         48.9828   -1.9615   10.8680 H           1 MOL       0.0315
     52 H5         48.0068   -4.2030   11.0588 H           1 MOL       0.0233
     53 H6         46.5664   -3.5456   11.8604 H           1 MOL       0.0233
     54 H7         48.1470   -3.4657   12.6645 H           1 MOL       0.0233
     55 H8         47.6129   -2.7081    8.9974 H           1 MOL       0.0522
     56 H9         47.4949   -0.9732    9.1764 H           1 MOL       0.0522
     57 H10        45.3619   -1.1354   10.0441 H           1 MOL       0.1853
     58 H11        43.4626   -1.8760    8.5080 H           1 MOL       0.1125
     59 H12        41.8134   -2.3462   10.5594 H           1 MOL       0.0674
     60 H13        42.7574   -2.2093   12.7124 H           1 MOL       0.0258
     61 H14        44.3750   -1.8642   12.1190 H           1 MOL       0.0258
     62 H15        43.7243   -3.4977   11.9828 H           1 MOL       0.0258
     63 H16        42.2326   -0.3252   11.1314 H           1 MOL       0.2102
     64 H17        42.8073   -3.5868    7.5917 H           1 MOL       0.2037
     65 H18        41.6926   -3.4344    8.7755 H           1 MOL       0.2037
     66 H19        43.6595   -5.5787    8.4470 H           1 MOL       0.0839
     67 H20        41.9430   -5.5880    8.1427 H           1 MOL       0.0839
     68 H21        43.2868   -5.3993   10.8316 H           1 MOL       0.0632
     69 H22        42.9142   -7.5931   11.2344 H           1 MOL       0.0450
     70 H23        42.9932   -7.7367    9.5017 H           1 MOL       0.0450
     71 H24        41.0882   -8.6419   12.3067 H           1 MOL       0.0557
     72 H25        38.8651   -9.5662   12.3114 H           1 MOL       0.0599
     73 H26        37.4674   -9.4075   10.3344 H           1 MOL       0.0559
     74 H27        38.3342   -8.3675    8.3206 H           1 MOL       0.0599
     75 H28        40.5685   -7.4697    8.2806 H           1 MOL       0.0557
     76 H29        40.4823   -5.0936   10.1208 H           1 MOL       0.1852
     77 H30        40.1420   -3.1894   13.8905 H           1 MOL       0.0576
     78 H31        38.6668   -5.8597   10.9841 H           1 MOL       0.0566
     79 H32        36.3831   -3.9207    9.7664 H           1 MOL       0.0517
     80 H33        34.7323   -4.4628   10.0757 H           1 MOL       0.0517
     81 H34        35.8904   -5.5435    9.2718 H           1 MOL       0.0517
     82 H35        33.7625   -8.3599   11.3228 H           1 MOL       0.0487
     83 H36        34.8911   -7.9316   10.0213 H           1 MOL       0.0487
     84 H37        33.5045   -6.8803   10.3822 H           1 MOL       0.0487
     85 H38        35.9957   -3.5791   13.2424 H           1 MOL       0.0566
     86 H39        39.2160   -2.6382   15.8584 H           1 MOL       0.1875
     87 H40        38.1070    0.0093   16.1024 H           1 MOL       0.0716
     88 H41        39.7615    0.2080   17.9373 H           1 MOL       0.0274
     89 H42        40.4709   -0.2299   16.3768 H           1 MOL       0.0274
     90 H43        40.2882   -1.4593   17.6246 H           1 MOL       0.0274
     91 H44        35.7446   -0.4366   16.5149 H           1 MOL       0.0557
     92 H45        34.0122   -1.0045   18.0803 H           1 MOL       0.0599
     93 H46        34.5609   -2.1087   20.1686 H           1 MOL       0.0559
     94 H47        36.8691   -2.6629   20.6735 H           1 MOL       0.0599
     95 H48        38.6104   -2.1545   19.1051 H           1 MOL       0.0557
@<TRIPOS>BOND
     1     1     2   1
     2     2     3   1
     3     2     4   1
     4     4     5   1
     5     5     6  am
     6     6     7   2
     7     6     8   1
     8     8     9   1
     9     8    12   1
    10     9    10   1
    11     9    11   1
    12    12    13   1
    13    13    14   1
    14    14    15   1
    15    14    22   1
    16    15    16   1
    17    16    17  ar
    18    16    21  ar
    19    17    18  ar
    20    18    19  ar
    21    19    20  ar
    22    20    21  ar
    23    22    23  am
    24    23    24   2
    25    23    25   1
    26    25    26  ar
    27    25    27  ar
    28    26    36  ar
    29    27    28  ar
    30    28    29   1
    31    28    35  ar
    32    29    30   1
    33    29    31  am
    34    31    32   2
    35    31    33   2
    36    31    34   1
    37    35    36  ar
    38    36    37   1
    39    37    38   2
    40    37    39  am
    41    39    40   1
    42    40    41   1
    43    40    42   1
    44    42    43  ar
    45    42    47  ar
    46    43    44  ar
    47    44    45  ar
    48    45    46  ar
    49    46    47  ar
    50     1    48   1
    51     1    49   1
    52     1    50   1
    53     2    51   1
    54     3    52   1
    55     3    53   1
    56     3    54   1
    57     4    55   1
    58     4    56   1
    59     5    57   1
    60     8    58   1
    61     9    59   1
    62    10    60   1
    63    10    61   1
    64    10    62   1
    65    11    63   1
    66    12    64   1
    67    12    65   1
    68    13    66   1
    69    13    67   1
    70    14    68   1
    71    15    69   1
    72    15    70   1
    73    17    71   1
    74    18    72   1
    75    19    73   1
    76    20    74   1
    77    21    75   1
    78    22    76   1
    79    26    77   1
    80    27    78   1
    81    30    79   1
    82    30    80   1
    83    30    81   1
    84    34    82   1
    85    34    83   1
    86    34    84   1
    87    35    85   1
    88    39    86   1
    89    40    87   1
    90    41    88   1
    91    41    89   1
    92    41    90   1
    93    43    91   1
    94    44    92   1
    95    45    93   1
    96    46    94   1
    97    47    95   1
@<TRIPOS>SUBSTRUCTURE
     1  MOL      1

