@<TRIPOS>MOLECULE
4gid_ligand_001
    95    97
SMALL
GAST_HUCK
****
This file was generated by PARSER (from files_GN.cpp)

@<TRIPOS>ATOM
      1 CBK        48.3599    2.2095   13.4422 C.3         1 MOL      -0.0608
      2 CBL        48.3681    0.7442   13.9619 C.3         1 MOL      -0.0265
      3 CBM        47.6171    0.6337   15.3178 C.3         1 MOL      -0.0608
      4 CBN        47.8539   -0.2775   12.9026 C.3         1 MOL       0.0334
      5 NBO        46.5956    0.0762   12.3077 N.am        1 MOL      -0.2820
      6 CBP        45.5538   -0.7162   12.0730 C.2         1 MOL       0.2271
      7 OBV        45.5935   -1.9056   12.3872 O.2         1 MOL      -0.3908
      8 CBG        44.3666   -0.1867   11.4072 C.3         1 MOL       0.0928
      9 CBH        43.4835    0.7009   12.3479 C.3         1 MOL       0.1121
     10 CBJ        44.2228    1.8573   13.0652 C.3         1 MOL      -0.0314
     11 OBI        42.4222    1.3002   11.6053 O.3         1 MOL      -0.3840
     12 NBF        43.4970   -1.2773   10.8814 N.4         1 MOL       0.2497
     13 CAX        44.0000   -2.1556    9.7869 C.3         1 MOL      -0.0062
     14 CAW        43.5655   -3.6511    9.9543 C.3         1 MOL       0.0906
     15 CAY        43.5724   -4.4429    8.6039 C.3         1 MOL       0.0089
     16 CAZ        42.5358   -5.5121    8.5176 C.ar        1 MOL      -0.0406
     17 CBA        42.7489   -6.7858    9.0880 C.ar        1 MOL      -0.0603
     18 CBB        41.7150   -7.7456    9.1085 C.ar        1 MOL      -0.0686
     19 CBC        40.4603   -7.4404    8.5520 C.ar        1 MOL      -0.0687
     20 CBD        40.2295   -6.1664    7.9972 C.ar        1 MOL      -0.0686
     21 CBE        41.2647   -5.2158    7.9812 C.ar        1 MOL      -0.0603
     22 NAV        42.2771   -3.7434   10.6067 N.am        1 MOL      -0.2761
     23 CAT        42.0594   -4.1671   11.8465 C.2         1 MOL       0.2026
     24 OAU        42.9940   -4.4297   12.5952 O.2         1 MOL      -0.3847
     25 CAP        40.7754   -4.2020   12.3829 C.ar        1 MOL       0.0397
     26 CAQ        39.7522   -4.9918   11.8100 C.ar        1 MOL      -0.0393
     27 CAO        40.4926   -3.4575   13.5488 C.ar        1 MOL      -0.0214
     28 CAN        39.2226   -3.5097   14.1599 C.ar        1 MOL       0.0754
     29 NAE        38.9244   -2.6885   15.2207 N.am        1 MOL      -0.1796
     30 CBT        39.8068   -2.5230   16.3447 C.3         1 MOL       0.0445
     31 SAB        37.5197   -1.7419   15.1925 S.o2        1 MOL       0.0593
     32 OAC        37.8806   -0.2142   15.4689 O.2         1 MOL      -0.1500
     33 OAD        36.8632   -1.7218   13.7361 O.2         1 MOL      -0.1500
     34 CAA        36.2496   -2.2788   16.3565 C.3         1 MOL       0.0790
     35 CAS        38.2532   -4.3806   13.6186 C.ar        1 MOL      -0.0214
     36 CAR        38.4776   -5.1104   12.4261 C.ar        1 MOL       0.0398
     37 CAL        37.4503   -5.8917   11.8752 C.2         1 MOL       0.2041
     38 OAM        36.6231   -6.4054   12.6223 O.2         1 MOL      -0.3845
     39 NBQ        37.2837   -5.9821   10.5619 N.am        1 MOL      -0.2723
     40 CBR        36.1574   -6.5691    9.8708 C.3         1 MOL       0.0723
     41 CBS        36.6153   -7.2467    8.5567 C.3         1 MOL      -0.0320
     42 CAI        35.0849   -5.5669    9.5667 C.ar        1 MOL      -0.0183
     43 CAH        35.3966   -4.2319    9.1972 C.ar        1 MOL      -0.0582
     44 CAG        34.3858   -3.3279    8.8325 C.ar        1 MOL      -0.0685
     45 CAF        33.0417   -3.7433    8.8100 C.ar        1 MOL      -0.0687
     46 CAK        32.7152   -5.0675    9.1533 C.ar        1 MOL      -0.0685
     47 CAJ        33.7257   -5.9656    9.5379 C.ar        1 MOL      -0.0582
     48 H1         48.8709    2.8616   14.1536 H           1 MOL       0.0233
     49 H2         47.3366    2.5713   13.3100 H           1 MOL       0.0233
     50 H3         48.8808    2.2735   12.4862 H           1 MOL       0.0233
     51 H4         49.4132    0.4844   14.1646 H           1 MOL       0.0315
     52 H5         47.6795   -0.3846   15.7073 H           1 MOL       0.0233
     53 H6         46.5680    0.9035   15.2016 H           1 MOL       0.0233
     54 H7         48.0699    1.2998   16.0561 H           1 MOL       0.0233
     55 H8         47.8293   -1.2720   13.3614 H           1 MOL       0.0522
     56 H9         48.5833   -0.3282   12.0934 H           1 MOL       0.0522
     57 H10        46.5187    0.9901   11.9918 H           1 MOL       0.1853
     58 H11        44.6825    0.4286   10.5570 H           1 MOL       0.1125
     59 H12        43.0262    0.0718   13.1206 H           1 MOL       0.0674
     60 H13        43.5144    2.5082   13.5797 H           1 MOL       0.0258
     61 H14        44.7768    2.4596   12.3451 H           1 MOL       0.0258
     62 H15        44.9169    1.4568   13.8062 H           1 MOL       0.0258
     63 H16        41.7163    0.6254   11.5315 H           1 MOL       0.2102
     64 H17        42.6536   -0.8466   10.5061 H           1 MOL       0.2037
     65 H18        43.2185   -1.8534   11.6781 H           1 MOL       0.2037
     66 H19        45.0845   -2.1068    9.7047 H           1 MOL       0.0839
     67 H20        43.5937   -1.7460    8.8531 H           1 MOL       0.0839
     68 H21        44.3240   -4.1203   10.5893 H           1 MOL       0.0632
     69 H22        44.5575   -4.8850    8.4455 H           1 MOL       0.0450
     70 H23        43.4265   -3.7440    7.7769 H           1 MOL       0.0450
     71 H24        43.6436   -7.0222    9.5134 H           1 MOL       0.0557
     72 H25        41.8688   -8.6561    9.5398 H           1 MOL       0.0599
     73 H26        39.7128   -8.1376    8.5676 H           1 MOL       0.0559
     74 H27        39.3063   -5.9273    7.6152 H           1 MOL       0.0599
     75 H28        41.0665   -4.2852    7.6039 H           1 MOL       0.0557
     76 H29        41.5091   -3.4538   10.0932 H           1 MOL       0.1852
     77 H30        39.9585   -5.5407   10.9670 H           1 MOL       0.0576
     78 H31        41.2086   -2.8389   13.9408 H           1 MOL       0.0566
     79 H32        40.6729   -3.1846   16.2971 H           1 MOL       0.0517
     80 H33        39.2719   -2.7441   17.2704 H           1 MOL       0.0517
     81 H34        40.1698   -1.4941   16.3886 H           1 MOL       0.0517
     82 H35        35.3487   -1.6828   16.2181 H           1 MOL       0.0487
     83 H36        36.6203   -2.1446   17.3706 H           1 MOL       0.0487
     84 H37        36.0214   -3.3297   16.1885 H           1 MOL       0.0487
     85 H38        37.3470   -4.4454   14.0890 H           1 MOL       0.0566
     86 H39        37.9166   -5.4919   10.0118 H           1 MOL       0.1875
     87 H40        35.7456   -7.3741   10.4878 H           1 MOL       0.0716
     88 H41        35.7742   -7.7593    8.0730 H           1 MOL       0.0274
     89 H42        37.3844   -7.9883    8.7648 H           1 MOL       0.0274
     90 H43        37.0226   -6.5092    7.8614 H           1 MOL       0.0274
     91 H44        36.3664   -3.9131    9.1833 H           1 MOL       0.0557
     92 H45        34.6216   -2.3727    8.5616 H           1 MOL       0.0599
     93 H46        32.3058   -3.0899    8.5287 H           1 MOL       0.0559
     94 H47        31.7465   -5.3765    9.0978 H           1 MOL       0.0599
     95 H48        33.4636   -6.9258    9.7730 H           1 MOL       0.0557
@<TRIPOS>BOND
     1     1     2   1
     2     2     3   1
     3     2     4   1
     4     4     5   1
     5     5     6  am
     6     6     7   2
     7     6     8   1
     8     8     9   1
     9     8    12   1
    10     9    10   1
    11     9    11   1
    12    12    13   1
    13    13    14   1
    14    14    15   1
    15    14    22   1
    16    15    16   1
    17    16    17  ar
    18    16    21  ar
    19    17    18  ar
    20    18    19  ar
    21    19    20  ar
    22    20    21  ar
    23    22    23  am
    24    23    24   2
    25    23    25   1
    26    25    26  ar
    27    25    27  ar
    28    26    36  ar
    29    27    28  ar
    30    28    29   1
    31    28    35  ar
    32    29    30   1
    33    29    31  am
    34    31    32   2
    35    31    33   2
    36    31    34   1
    37    35    36  ar
    38    36    37   1
    39    37    38   2
    40    37    39  am
    41    39    40   1
    42    40    41   1
    43    40    42   1
    44    42    43  ar
    45    42    47  ar
    46    43    44  ar
    47    44    45  ar
    48    45    46  ar
    49    46    47  ar
    50     1    48   1
    51     1    49   1
    52     1    50   1
    53     2    51   1
    54     3    52   1
    55     3    53   1
    56     3    54   1
    57     4    55   1
    58     4    56   1
    59     5    57   1
    60     8    58   1
    61     9    59   1
    62    10    60   1
    63    10    61   1
    64    10    62   1
    65    11    63   1
    66    12    64   1
    67    12    65   1
    68    13    66   1
    69    13    67   1
    70    14    68   1
    71    15    69   1
    72    15    70   1
    73    17    71   1
    74    18    72   1
    75    19    73   1
    76    20    74   1
    77    21    75   1
    78    22    76   1
    79    26    77   1
    80    27    78   1
    81    30    79   1
    82    30    80   1
    83    30    81   1
    84    34    82   1
    85    34    83   1
    86    34    84   1
    87    35    85   1
    88    39    86   1
    89    40    87   1
    90    41    88   1
    91    41    89   1
    92    41    90   1
    93    43    91   1
    94    44    92   1
    95    45    93   1
    96    46    94   1
    97    47    95   1
@<TRIPOS>SUBSTRUCTURE
     1  MOL      1

