@<TRIPOS>MOLECULE
4gid_ligand_048
    95    97
SMALL
GAST_HUCK
****
This file was generated by PARSER (from files_GN.cpp)

@<TRIPOS>ATOM
      1 CBK        47.8310    2.0835   12.0851 C.3         1 MOL      -0.0608
      2 CBL        47.9491    0.6024   12.5355 C.3         1 MOL      -0.0265
      3 CBM        47.8633    0.4783   14.0818 C.3         1 MOL      -0.0608
      4 CBN        46.9350   -0.3197   11.7949 C.3         1 MOL       0.0334
      5 NBO        45.5643   -0.0241   12.0838 N.am        1 MOL      -0.2820
      6 CBP        44.6283    0.3924   11.2387 C.2         1 MOL       0.2271
      7 OBV        44.9016    0.6286   10.0628 O.2         1 MOL      -0.3908
      8 CBG        43.2413    0.5485   11.6858 C.3         1 MOL       0.0928
      9 CBH        43.0893    1.3457   13.0276 C.3         1 MOL       0.1121
     10 CBJ        44.0852    2.5229   13.2223 C.3         1 MOL      -0.0314
     11 OBI        41.7660    1.8885   13.1253 O.3         1 MOL      -0.3840
     12 NBF        42.6517   -0.8264   11.7005 N.4         1 MOL       0.2497
     13 CAX        41.6686   -1.2746   12.7232 C.3         1 MOL      -0.0062
     14 CAW        41.3830   -2.8097   12.6477 C.3         1 MOL       0.0906
     15 CAY        41.2557   -3.4313   11.2174 C.3         1 MOL       0.0089
     16 CAZ        42.4858   -3.4107   10.3825 C.ar        1 MOL      -0.0406
     17 CBA        43.7393   -3.7649   10.9315 C.ar        1 MOL      -0.0603
     18 CBB        44.9123   -3.6780   10.1636 C.ar        1 MOL      -0.0686
     19 CBC        44.8403   -3.3077    8.8096 C.ar        1 MOL      -0.0687
     20 CBD        43.5962   -2.9925    8.2371 C.ar        1 MOL      -0.0686
     21 CBE        42.4277   -3.0384    9.0175 C.ar        1 MOL      -0.0603
     22 NAV        40.2629   -3.1187   13.5002 N.am        1 MOL      -0.2761
     23 CAT        38.9729   -2.9134   13.2572 C.2         1 MOL       0.2026
     24 OAU        38.5712   -2.4317   12.2079 O.2         1 MOL      -0.3847
     25 CAP        38.0266   -3.2245   14.2088 C.ar        1 MOL       0.0397
     26 CAQ        37.0419   -4.2012   13.9456 C.ar        1 MOL      -0.0393
     27 CAO        38.0011   -2.5321   15.4369 C.ar        1 MOL      -0.0214
     28 CAN        36.9638   -2.7457   16.3643 C.ar        1 MOL       0.0754
     29 NAE        36.8859   -1.9994   17.5126 N.am        1 MOL      -0.1796
     30 CBT        36.6801   -2.6113   18.7967 C.3         1 MOL       0.0445
     31 SAB        36.9261   -0.3049   17.4512 S.o2        1 MOL       0.0593
     32 OAC        35.6853    0.2793   18.2580 O.2         1 MOL      -0.1500
     33 OAD        38.2612    0.2392   18.1270 O.2         1 MOL      -0.1500
     34 CAA        36.8066    0.4365   15.8078 C.3         1 MOL       0.0790
     35 CAS        36.0088   -3.7522   16.0961 C.ar        1 MOL      -0.0214
     36 CAR        36.0471   -4.5228   14.9057 C.ar        1 MOL       0.0398
     37 CAL        35.2019   -5.6184   14.7264 C.2         1 MOL       0.2041
     38 OAM        34.6905   -6.1422   15.7178 O.2         1 MOL      -0.3845
     39 NBQ        34.9850   -6.1554   13.5253 N.am        1 MOL      -0.2723
     40 CBR        34.3434   -7.4068   13.2247 C.3         1 MOL       0.0723
     41 CBS        34.1553   -7.5194   11.6917 C.3         1 MOL      -0.0320
     42 CAI        33.0537   -7.5950   13.9601 C.ar        1 MOL      -0.0183
     43 CAH        32.7096   -8.8569   14.5066 C.ar        1 MOL      -0.0582
     44 CAG        31.5524   -9.0088   15.2961 C.ar        1 MOL      -0.0685
     45 CAF        30.7218   -7.9046   15.5451 C.ar        1 MOL      -0.0687
     46 CAK        31.0436   -6.6503   14.9994 C.ar        1 MOL      -0.0685
     47 CAJ        32.1973   -6.4981   14.2075 C.ar        1 MOL      -0.0582
     48 H1         48.6291    2.6786   12.5350 H           1 MOL       0.0233
     49 H2         46.8732    2.5118   12.3803 H           1 MOL       0.0233
     50 H3         47.9189    2.1645   10.9999 H           1 MOL       0.0233
     51 H4         48.9500    0.2705   12.2469 H           1 MOL       0.0315
     52 H5         48.0221   -0.5572   14.3868 H           1 MOL       0.0233
     53 H6         46.8889    0.8046   14.4497 H           1 MOL       0.0233
     54 H7         48.6319    1.0933   14.5535 H           1 MOL       0.0233
     55 H8         47.1073   -1.3508   12.1070 H           1 MOL       0.0522
     56 H9         47.1330   -0.2852   10.7205 H           1 MOL       0.0522
     57 H10        45.2937   -0.1457   13.0058 H           1 MOL       0.1853
     58 H11        42.6884    1.1107   10.9213 H           1 MOL       0.1125
     59 H12        43.2141    0.6291   13.8519 H           1 MOL       0.0674
     60 H13        43.6939    3.2291   13.9600 H           1 MOL       0.0258
     61 H14        44.2449    3.0439   12.2764 H           1 MOL       0.0258
     62 H15        45.0358    2.1392   13.5940 H           1 MOL       0.0258
     63 H16        41.2210    1.4776   12.4166 H           1 MOL       0.2102
     64 H17        43.4307   -1.4886   11.7357 H           1 MOL       0.2037
     65 H18        42.1948   -0.9252   10.7930 H           1 MOL       0.2037
     66 H19        40.7450   -0.6997   12.6032 H           1 MOL       0.0839
     67 H20        42.0834   -1.0453   13.7208 H           1 MOL       0.0839
     68 H21        42.2395   -3.2813   13.1462 H           1 MOL       0.0632
     69 H22        40.4430   -2.9209   10.7024 H           1 MOL       0.0450
     70 H23        40.9594   -4.4684   11.3430 H           1 MOL       0.0450
     71 H24        43.8159   -4.0627   11.9040 H           1 MOL       0.0557
     72 H25        45.8178   -3.8949   10.5869 H           1 MOL       0.0599
     73 H26        45.6940   -3.2743    8.2471 H           1 MOL       0.0559
     74 H27        43.5438   -2.7269    7.2524 H           1 MOL       0.0599
     75 H28        41.5379   -2.7954    8.5811 H           1 MOL       0.0557
     76 H29        40.4807   -3.5391   14.3508 H           1 MOL       0.1852
     77 H30        37.0969   -4.7308   13.0717 H           1 MOL       0.0576
     78 H31        38.7229   -1.8369   15.6419 H           1 MOL       0.0566
     79 H32        36.7316   -3.7026   18.7539 H           1 MOL       0.0517
     80 H33        35.6980   -2.3369   19.1918 H           1 MOL       0.0517
     81 H34        37.4477   -2.2771   19.5003 H           1 MOL       0.0517
     82 H35        36.6863    1.5162   15.8980 H           1 MOL       0.0487
     83 H36        35.9504    0.0197   15.2761 H           1 MOL       0.0487
     84 H37        37.7157    0.2355   15.2409 H           1 MOL       0.0487
     85 H38        35.2683   -3.9240   16.7843 H           1 MOL       0.0566
     86 H39        35.3444   -5.6680   12.7627 H           1 MOL       0.1875
     87 H40        35.0508   -8.1875   13.5149 H           1 MOL       0.0716
     88 H41        33.6556   -8.4542   11.4309 H           1 MOL       0.0274
     89 H42        35.1279   -7.5026   11.1984 H           1 MOL       0.0274
     90 H43        33.5632   -6.6842   11.3136 H           1 MOL       0.0274
     91 H44        33.3080   -9.6735   14.3497 H           1 MOL       0.0557
     92 H45        31.3228   -9.9225   15.6960 H           1 MOL       0.0599
     93 H46        29.8899   -8.0075   16.1302 H           1 MOL       0.0559
     94 H47        30.4477   -5.8447   15.1827 H           1 MOL       0.0599
     95 H48        32.4209   -5.5720   13.8369 H           1 MOL       0.0557
@<TRIPOS>BOND
     1     1     2   1
     2     2     3   1
     3     2     4   1
     4     4     5   1
     5     5     6  am
     6     6     7   2
     7     6     8   1
     8     8     9   1
     9     8    12   1
    10     9    10   1
    11     9    11   1
    12    12    13   1
    13    13    14   1
    14    14    15   1
    15    14    22   1
    16    15    16   1
    17    16    17  ar
    18    16    21  ar
    19    17    18  ar
    20    18    19  ar
    21    19    20  ar
    22    20    21  ar
    23    22    23  am
    24    23    24   2
    25    23    25   1
    26    25    26  ar
    27    25    27  ar
    28    26    36  ar
    29    27    28  ar
    30    28    29   1
    31    28    35  ar
    32    29    30   1
    33    29    31  am
    34    31    32   2
    35    31    33   2
    36    31    34   1
    37    35    36  ar
    38    36    37   1
    39    37    38   2
    40    37    39  am
    41    39    40   1
    42    40    41   1
    43    40    42   1
    44    42    43  ar
    45    42    47  ar
    46    43    44  ar
    47    44    45  ar
    48    45    46  ar
    49    46    47  ar
    50     1    48   1
    51     1    49   1
    52     1    50   1
    53     2    51   1
    54     3    52   1
    55     3    53   1
    56     3    54   1
    57     4    55   1
    58     4    56   1
    59     5    57   1
    60     8    58   1
    61     9    59   1
    62    10    60   1
    63    10    61   1
    64    10    62   1
    65    11    63   1
    66    12    64   1
    67    12    65   1
    68    13    66   1
    69    13    67   1
    70    14    68   1
    71    15    69   1
    72    15    70   1
    73    17    71   1
    74    18    72   1
    75    19    73   1
    76    20    74   1
    77    21    75   1
    78    22    76   1
    79    26    77   1
    80    27    78   1
    81    30    79   1
    82    30    80   1
    83    30    81   1
    84    34    82   1
    85    34    83   1
    86    34    84   1
    87    35    85   1
    88    39    86   1
    89    40    87   1
    90    41    88   1
    91    41    89   1
    92    41    90   1
    93    43    91   1
    94    44    92   1
    95    45    93   1
    96    46    94   1
    97    47    95   1
@<TRIPOS>SUBSTRUCTURE
     1  MOL      1

