@<TRIPOS>MOLECULE
4gid_ligand_087
    95    97
SMALL
GAST_HUCK
****
This file was generated by PARSER (from files_GN.cpp)

@<TRIPOS>ATOM
      1 CBK        38.6110   -2.5906   13.2435 C.3         1 MOL      -0.0608
      2 CBL        39.8755   -3.4584   13.4750 C.3         1 MOL      -0.0265
      3 CBM        39.7170   -4.8539   12.8079 C.3         1 MOL      -0.0608
      4 CBN        41.1860   -2.7284   13.0434 C.3         1 MOL       0.0334
      5 NBO        41.4838   -2.8278   11.6413 N.am        1 MOL      -0.2820
      6 CBP        42.6875   -3.0496   11.1115 C.2         1 MOL       0.2271
      7 OBV        43.6737   -3.1857   11.8282 O.2         1 MOL      -0.3908
      8 CBG        42.8410   -3.2322    9.6668 C.3         1 MOL       0.0928
      9 CBH        42.6422   -4.7161    9.1561 C.3         1 MOL       0.1121
     10 CBJ        42.3085   -5.7988   10.2188 C.3         1 MOL      -0.0314
     11 OBI        41.6117   -4.7638    8.1665 O.3         1 MOL      -0.3840
     12 NBF        44.0729   -2.5222    9.1863 N.4         1 MOL       0.2497
     13 CAX        45.4113   -3.1783    9.2773 C.3         1 MOL      -0.0062
     14 CAW        46.6012   -2.1704    9.4730 C.3         1 MOL       0.0906
     15 CAY        47.8615   -2.4275    8.5587 C.3         1 MOL       0.0089
     16 CAZ        49.0322   -3.1455    9.1397 C.ar        1 MOL      -0.0406
     17 CBA        48.9171   -4.4824    9.5879 C.ar        1 MOL      -0.0603
     18 CBB        50.0169   -5.1441   10.1668 C.ar        1 MOL      -0.0686
     19 CBC        51.2525   -4.4868   10.2788 C.ar        1 MOL      -0.0687
     20 CBD        51.3958   -3.1727    9.7991 C.ar        1 MOL      -0.0686
     21 CBE        50.2945   -2.5085    9.2323 C.ar        1 MOL      -0.0603
     22 NAV        46.9709   -1.8571   10.8356 N.am        1 MOL      -0.2761
     23 CAT        47.2299   -2.6751   11.8573 C.2         1 MOL       0.2026
     24 OAU        46.9813   -3.8657   11.7191 O.2         1 MOL      -0.3847
     25 CAP        47.7931   -2.2447   13.0739 C.ar        1 MOL       0.0397
     26 CAQ        48.3570   -3.1732   13.9895 C.ar        1 MOL      -0.0393
     27 CAO        47.8357   -0.8767   13.4421 C.ar        1 MOL      -0.0214
     28 CAN        48.3930   -0.4482   14.6671 C.ar        1 MOL       0.0754
     29 NAE        48.3664    0.8741   15.0021 N.am        1 MOL      -0.1796
     30 CBT        47.1175    1.5664   15.1199 C.3         1 MOL       0.0445
     31 SAB        49.8041    1.7070   15.3308 S.o2        1 MOL       0.0593
     32 OAC        49.7387    3.1570   14.6765 O.2         1 MOL      -0.1500
     33 OAD        50.0388    1.8707   16.8950 O.2         1 MOL      -0.1500
     34 CAA        51.2661    0.9460   14.5951 C.3         1 MOL       0.0790
     35 CAS        48.9315   -1.4058   15.5515 C.ar        1 MOL      -0.0214
     36 CAR        48.9227   -2.7740   15.2176 C.ar        1 MOL       0.0398
     37 CAL        49.4603   -3.7126   16.0674 C.2         1 MOL       0.2041
     38 OAM        50.6717   -3.6923   16.2565 O.2         1 MOL      -0.3845
     39 NBQ        48.6588   -4.6075   16.6304 N.am        1 MOL      -0.2723
     40 CBR        49.0372   -5.6870   17.4983 C.3         1 MOL       0.0723
     41 CBS        48.0960   -6.8868   17.2062 C.3         1 MOL      -0.0320
     42 CAI        49.0731   -5.1592   18.8992 C.ar        1 MOL      -0.0183
     43 CAH        50.2249   -4.4468   19.3180 C.ar        1 MOL      -0.0582
     44 CAG        50.3252   -3.9145   20.6166 C.ar        1 MOL      -0.0685
     45 CAF        49.2707   -4.0865   21.5280 C.ar        1 MOL      -0.0687
     46 CAK        48.1155   -4.7824   21.1346 C.ar        1 MOL      -0.0685
     47 CAJ        48.0164   -5.3129   19.8344 C.ar        1 MOL      -0.0582
     48 H1         37.7203   -3.1176   13.5977 H           1 MOL       0.0233
     49 H2         38.4922   -2.3720   12.1823 H           1 MOL       0.0233
     50 H3         38.6925   -1.6498   13.7944 H           1 MOL       0.0233
     51 H4         39.9448   -3.6252   14.5575 H           1 MOL       0.0315
     52 H5         40.6341   -5.4375   12.9171 H           1 MOL       0.0233
     53 H6         39.4917   -4.7461   11.7440 H           1 MOL       0.0233
     54 H7         38.8995   -5.4073   13.2781 H           1 MOL       0.0233
     55 H8         42.0019   -3.1477   13.6375 H           1 MOL       0.0522
     56 H9         41.1160   -1.6683   13.2978 H           1 MOL       0.0522
     57 H10        40.7348   -2.7317   11.0263 H           1 MOL       0.1853
     58 H11        42.0423   -2.6429    9.2083 H           1 MOL       0.1125
     59 H12        43.5424   -5.0562    8.6492 H           1 MOL       0.0674
     60 H13        42.2381   -6.7833    9.7477 H           1 MOL       0.0258
     61 H14        41.3504   -5.5739   10.6946 H           1 MOL       0.0258
     62 H15        43.0876   -5.8376   10.9840 H           1 MOL       0.0258
     63 H16        40.7675   -4.7249    8.6693 H           1 MOL       0.2102
     64 H17        44.1224   -1.6310    9.6881 H           1 MOL       0.2037
     65 H18        43.9262   -2.3001    8.1969 H           1 MOL       0.2037
     66 H19        45.5453   -3.7118    8.3299 H           1 MOL       0.0839
     67 H20        45.4203   -3.9266   10.0643 H           1 MOL       0.0839
     68 H21        46.2042   -1.2182    9.1107 H           1 MOL       0.0632
     69 H22        48.2090   -1.4523    8.1985 H           1 MOL       0.0450
     70 H23        47.5790   -2.9703    7.6554 H           1 MOL       0.0450
     71 H24        48.0281   -4.9802    9.5041 H           1 MOL       0.0557
     72 H25        49.9178   -6.0993   10.5150 H           1 MOL       0.0599
     73 H26        52.0461   -4.9673   10.7028 H           1 MOL       0.0559
     74 H27        52.2971   -2.6939    9.8606 H           1 MOL       0.0599
     75 H28        50.4222   -1.5560    8.8870 H           1 MOL       0.0557
     76 H29        47.1189   -0.9142   11.0009 H           1 MOL       0.1852
     77 H30        48.3675   -4.1661   13.7581 H           1 MOL       0.0576
     78 H31        47.4432   -0.1656   12.8188 H           1 MOL       0.0566
     79 H32        46.2548    0.9475   14.8651 H           1 MOL       0.0517
     80 H33        47.1074    2.4320   14.4547 H           1 MOL       0.0517
     81 H34        46.9871    1.8920   16.1525 H           1 MOL       0.0517
     82 H35        52.1344    1.5838   14.7605 H           1 MOL       0.0487
     83 H36        51.1065    0.8218   13.5229 H           1 MOL       0.0487
     84 H37        51.4459   -0.0286   15.0491 H           1 MOL       0.0487
     85 H38        49.3183   -1.1007   16.4513 H           1 MOL       0.0566
     86 H39        47.7079   -4.5160   16.4443 H           1 MOL       0.1875
     87 H40        50.0428   -6.0512   17.2653 H           1 MOL       0.0716
     88 H41        48.3500   -7.7325   17.8497 H           1 MOL       0.0274
     89 H42        48.2069   -7.2035   16.1657 H           1 MOL       0.0274
     90 H43        47.0494   -6.6202   17.3712 H           1 MOL       0.0274
     91 H44        51.0087   -4.3079   18.6736 H           1 MOL       0.0557
     92 H45        51.1645   -3.4003   20.8952 H           1 MOL       0.0599
     93 H46        49.3416   -3.7009   22.4706 H           1 MOL       0.0559
     94 H47        47.3420   -4.8980   21.7946 H           1 MOL       0.0599
     95 H48        47.1574   -5.8032   19.5827 H           1 MOL       0.0557
@<TRIPOS>BOND
     1     1     2   1
     2     2     3   1
     3     2     4   1
     4     4     5   1
     5     5     6  am
     6     6     7   2
     7     6     8   1
     8     8     9   1
     9     8    12   1
    10     9    10   1
    11     9    11   1
    12    12    13   1
    13    13    14   1
    14    14    15   1
    15    14    22   1
    16    15    16   1
    17    16    17  ar
    18    16    21  ar
    19    17    18  ar
    20    18    19  ar
    21    19    20  ar
    22    20    21  ar
    23    22    23  am
    24    23    24   2
    25    23    25   1
    26    25    26  ar
    27    25    27  ar
    28    26    36  ar
    29    27    28  ar
    30    28    29   1
    31    28    35  ar
    32    29    30   1
    33    29    31  am
    34    31    32   2
    35    31    33   2
    36    31    34   1
    37    35    36  ar
    38    36    37   1
    39    37    38   2
    40    37    39  am
    41    39    40   1
    42    40    41   1
    43    40    42   1
    44    42    43  ar
    45    42    47  ar
    46    43    44  ar
    47    44    45  ar
    48    45    46  ar
    49    46    47  ar
    50     1    48   1
    51     1    49   1
    52     1    50   1
    53     2    51   1
    54     3    52   1
    55     3    53   1
    56     3    54   1
    57     4    55   1
    58     4    56   1
    59     5    57   1
    60     8    58   1
    61     9    59   1
    62    10    60   1
    63    10    61   1
    64    10    62   1
    65    11    63   1
    66    12    64   1
    67    12    65   1
    68    13    66   1
    69    13    67   1
    70    14    68   1
    71    15    69   1
    72    15    70   1
    73    17    71   1
    74    18    72   1
    75    19    73   1
    76    20    74   1
    77    21    75   1
    78    22    76   1
    79    26    77   1
    80    27    78   1
    81    30    79   1
    82    30    80   1
    83    30    81   1
    84    34    82   1
    85    34    83   1
    86    34    84   1
    87    35    85   1
    88    39    86   1
    89    40    87   1
    90    41    88   1
    91    41    89   1
    92    41    90   1
    93    43    91   1
    94    44    92   1
    95    45    93   1
    96    46    94   1
    97    47    95   1
@<TRIPOS>SUBSTRUCTURE
     1  MOL      1

