@<TRIPOS>MOLECULE
4gid_ligand_057
    95    97
SMALL
GAST_HUCK
****
This file was generated by PARSER (from files_GN.cpp)

@<TRIPOS>ATOM
      1 CBK        42.7915    0.6939   12.4532 C.3         1 MOL      -0.0608
      2 CBL        44.0756    1.4557   12.0204 C.3         1 MOL      -0.0265
      3 CBM        44.4385    2.5517   13.0567 C.3         1 MOL      -0.0608
      4 CBN        45.2865    0.4987   11.7843 C.3         1 MOL       0.0334
      5 NBO        44.9562   -0.5962   10.9081 N.am        1 MOL      -0.2820
      6 CBP        44.9930   -1.8906   11.2109 C.2         1 MOL       0.2271
      7 OBV        45.3891   -2.2596   12.3071 O.2         1 MOL      -0.3908
      8 CBG        44.5848   -2.9069   10.2387 C.3         1 MOL       0.0928
      9 CBH        45.5338   -2.9940    8.9925 C.3         1 MOL       0.1121
     10 CBJ        47.0390   -2.7367    9.2753 C.3         1 MOL      -0.0314
     11 OBI        45.4877   -4.2945    8.3907 O.3         1 MOL      -0.3840
     12 NBF        43.1522   -2.6209    9.9187 N.4         1 MOL       0.2497
     13 CAX        42.3829   -3.5364    9.0448 C.3         1 MOL      -0.0062
     14 CAW        42.0044   -4.8941    9.7118 C.3         1 MOL       0.0906
     15 CAY        41.5048   -5.9436    8.6611 C.3         1 MOL       0.0089
     16 CAZ        40.7692   -7.1103    9.2348 C.ar        1 MOL      -0.0406
     17 CBA        39.4234   -7.3751    8.8801 C.ar        1 MOL      -0.0603
     18 CBB        38.7254   -8.4614    9.4454 C.ar        1 MOL      -0.0686
     19 CBC        39.3616   -9.2889   10.3848 C.ar        1 MOL      -0.0687
     20 CBD        40.6910   -9.0319   10.7624 C.ar        1 MOL      -0.0686
     21 CBE        41.3936   -7.9562   10.1829 C.ar        1 MOL      -0.0603
     22 NAV        40.9503   -4.6496   10.6482 N.am        1 MOL      -0.2761
     23 CAT        40.9910   -4.5603   11.9695 C.2         1 MOL       0.2026
     24 OAU        42.0487   -4.5090   12.5849 O.2         1 MOL      -0.3847
     25 CAP        39.7772   -4.5277   12.6450 C.ar        1 MOL       0.0397
     26 CAQ        38.7363   -5.3966   12.2398 C.ar        1 MOL      -0.0393
     27 CAO        39.5259   -3.6299   13.7088 C.ar        1 MOL      -0.0214
     28 CAN        38.2428   -3.5399   14.3069 C.ar        1 MOL       0.0754
     29 NAE        38.0421   -2.7072   15.3792 N.am        1 MOL      -0.1796
     30 CBT        38.8104   -2.8561   16.5862 C.3         1 MOL       0.0445
     31 SAB        36.7576   -1.6000   15.3729 S.o2        1 MOL       0.0593
     32 OAC        36.4303   -1.1556   13.8808 O.2         1 MOL      -0.1500
     33 OAD        35.4443   -2.2667   15.9708 O.2         1 MOL      -0.1500
     34 CAA        37.1030   -0.0671   16.2561 C.3         1 MOL       0.0790
     35 CAS        37.2010   -4.3593   13.8070 C.ar        1 MOL      -0.0214
     36 CAR        37.4455   -5.3085   12.7945 C.ar        1 MOL       0.0398
     37 CAL        36.4592   -6.1838   12.3763 C.2         1 MOL       0.2041
     38 OAM        36.6683   -7.3836   12.4635 O.2         1 MOL      -0.3845
     39 NBQ        35.3049   -5.7223   11.9091 N.am        1 MOL      -0.2723
     40 CBR        34.1906   -6.5224   11.4814 C.3         1 MOL       0.0723
     41 CBS        33.4335   -5.7927   10.3324 C.3         1 MOL      -0.0320
     42 CAI        33.3557   -6.8637   12.6786 C.ar        1 MOL      -0.0183
     43 CAH        33.3077   -8.1882   13.1823 C.ar        1 MOL      -0.0582
     44 CAG        32.5450   -8.5082   14.3202 C.ar        1 MOL      -0.0685
     45 CAF        31.8168   -7.5082   14.9835 C.ar        1 MOL      -0.0687
     46 CAK        31.8557   -6.1856   14.5079 C.ar        1 MOL      -0.0685
     47 CAJ        32.6178   -5.8725   13.3704 C.ar        1 MOL      -0.0582
     48 H1         41.9676    1.3946   12.6047 H           1 MOL       0.0233
     49 H2         42.9614    0.1435   13.3803 H           1 MOL       0.0233
     50 H3         42.4858   -0.0069   11.6784 H           1 MOL       0.0233
     51 H4         43.8547    1.9555   11.0713 H           1 MOL       0.0315
     52 H5         45.3031    3.1244   12.7178 H           1 MOL       0.0233
     53 H6         44.6668    2.1074   14.0256 H           1 MOL       0.0233
     54 H7         43.6075    3.2458   13.1867 H           1 MOL       0.0233
     55 H8         45.6617    0.1471   12.7489 H           1 MOL       0.0522
     56 H9         46.0945    1.0566   11.3082 H           1 MOL       0.0522
     57 H10        44.6468   -0.3590   10.0226 H           1 MOL       0.1853
     58 H11        44.6282   -3.8819   10.7349 H           1 MOL       0.1125
     59 H12        45.2044   -2.2684    8.2498 H           1 MOL       0.0674
     60 H13        47.6511   -3.0130    8.4095 H           1 MOL       0.0258
     61 H14        47.3731   -3.3218   10.1358 H           1 MOL       0.0258
     62 H15        47.2116   -1.6749    9.4765 H           1 MOL       0.0258
     63 H16        44.6721   -4.3453    7.8581 H           1 MOL       0.2102
     64 H17        43.0943   -1.6986    9.4891 H           1 MOL       0.2037
     65 H18        42.6482   -2.5642   10.8076 H           1 MOL       0.2037
     66 H19        42.9159   -3.6967    8.1137 H           1 MOL       0.0839
     67 H20        41.4641   -3.0147    8.7685 H           1 MOL       0.0839
     68 H21        42.8757   -5.3192   10.2184 H           1 MOL       0.0632
     69 H22        42.3676   -6.3219    8.1091 H           1 MOL       0.0450
     70 H23        40.8679   -5.4312    7.9325 H           1 MOL       0.0450
     71 H24        38.9330   -6.7754    8.2104 H           1 MOL       0.0557
     72 H25        37.7567   -8.6409    9.1773 H           1 MOL       0.0599
     73 H26        38.8568  -10.0789   10.7938 H           1 MOL       0.0559
     74 H27        41.1464   -9.6231   11.4586 H           1 MOL       0.0599
     75 H28        42.3612   -7.7876   10.4690 H           1 MOL       0.0557
     76 H29        40.0642   -4.5977   10.2509 H           1 MOL       0.1852
     77 H30        38.9171   -6.0896   11.5129 H           1 MOL       0.0576
     78 H31        40.2740   -3.0029   14.0340 H           1 MOL       0.0566
     79 H32        39.4951   -3.7056   16.5432 H           1 MOL       0.0517
     80 H33        38.1479   -3.0140   17.4375 H           1 MOL       0.0517
     81 H34        39.4002   -1.9560   16.7568 H           1 MOL       0.0517
     82 H35        36.2736    0.6267   16.1224 H           1 MOL       0.0487
     83 H36        38.0150    0.3804   15.8654 H           1 MOL       0.0487
     84 H37        37.2284   -0.2776   17.3173 H           1 MOL       0.0487
     85 H38        36.2748   -4.2974   14.2323 H           1 MOL       0.0566
     86 H39        35.2108   -4.7595   11.8479 H           1 MOL       0.1875
     87 H40        34.5723   -7.4322   11.0170 H           1 MOL       0.0716
     88 H41        32.7088   -6.4699    9.8777 H           1 MOL       0.0274
     89 H42        34.1370   -5.5018    9.5522 H           1 MOL       0.0274
     90 H43        32.9146   -4.9006   10.6747 H           1 MOL       0.0274
     91 H44        33.8191   -8.9383   12.7128 H           1 MOL       0.0557
     92 H45        32.5071   -9.4759   14.6624 H           1 MOL       0.0599
     93 H46        31.2542   -7.7368   15.8092 H           1 MOL       0.0559
     94 H47        31.3263   -5.4507   14.9915 H           1 MOL       0.0599
     95 H48        32.6108   -4.9088   13.0439 H           1 MOL       0.0557
@<TRIPOS>BOND
     1     1     2   1
     2     2     3   1
     3     2     4   1
     4     4     5   1
     5     5     6  am
     6     6     7   2
     7     6     8   1
     8     8     9   1
     9     8    12   1
    10     9    10   1
    11     9    11   1
    12    12    13   1
    13    13    14   1
    14    14    15   1
    15    14    22   1
    16    15    16   1
    17    16    17  ar
    18    16    21  ar
    19    17    18  ar
    20    18    19  ar
    21    19    20  ar
    22    20    21  ar
    23    22    23  am
    24    23    24   2
    25    23    25   1
    26    25    26  ar
    27    25    27  ar
    28    26    36  ar
    29    27    28  ar
    30    28    29   1
    31    28    35  ar
    32    29    30   1
    33    29    31  am
    34    31    32   2
    35    31    33   2
    36    31    34   1
    37    35    36  ar
    38    36    37   1
    39    37    38   2
    40    37    39  am
    41    39    40   1
    42    40    41   1
    43    40    42   1
    44    42    43  ar
    45    42    47  ar
    46    43    44  ar
    47    44    45  ar
    48    45    46  ar
    49    46    47  ar
    50     1    48   1
    51     1    49   1
    52     1    50   1
    53     2    51   1
    54     3    52   1
    55     3    53   1
    56     3    54   1
    57     4    55   1
    58     4    56   1
    59     5    57   1
    60     8    58   1
    61     9    59   1
    62    10    60   1
    63    10    61   1
    64    10    62   1
    65    11    63   1
    66    12    64   1
    67    12    65   1
    68    13    66   1
    69    13    67   1
    70    14    68   1
    71    15    69   1
    72    15    70   1
    73    17    71   1
    74    18    72   1
    75    19    73   1
    76    20    74   1
    77    21    75   1
    78    22    76   1
    79    26    77   1
    80    27    78   1
    81    30    79   1
    82    30    80   1
    83    30    81   1
    84    34    82   1
    85    34    83   1
    86    34    84   1
    87    35    85   1
    88    39    86   1
    89    40    87   1
    90    41    88   1
    91    41    89   1
    92    41    90   1
    93    43    91   1
    94    44    92   1
    95    45    93   1
    96    46    94   1
    97    47    95   1
@<TRIPOS>SUBSTRUCTURE
     1  MOL      1

