@<TRIPOS>MOLECULE
4gid_ligand_060
    95    97
SMALL
GAST_HUCK
****
This file was generated by PARSER (from files_GN.cpp)

@<TRIPOS>ATOM
      1 CBK        44.6845   -0.5788    9.1216 C.3         1 MOL      -0.0608
      2 CBL        44.3036   -1.9607    9.7264 C.3         1 MOL      -0.0265
      3 CBM        44.5425   -3.0813    8.6747 C.3         1 MOL      -0.0608
      4 CBN        45.0550   -2.2989   11.0532 C.3         1 MOL       0.0334
      5 NBO        45.4191   -1.1524   11.8341 N.am        1 MOL      -0.2820
      6 CBP        46.4932   -0.3939   11.6181 C.2         1 MOL       0.2271
      7 OBV        47.2545   -0.6471   10.6929 O.2         1 MOL      -0.3908
      8 CBG        46.7443    0.8010   12.4231 C.3         1 MOL       0.0928
      9 CBH        46.4287    2.0860   11.5714 C.3         1 MOL       0.1121
     10 CBJ        45.9074    3.2946   12.3921 C.3         1 MOL      -0.0314
     11 OBI        47.5678    2.4646   10.7943 O.3         1 MOL      -0.3840
     12 NBF        48.1443    0.6450   12.9007 N.4         1 MOL       0.2497
     13 CAX        48.6789    1.5063   13.9725 C.3         1 MOL      -0.0062
     14 CAW        50.1384    1.1034   14.3629 C.3         1 MOL       0.0906
     15 CAY        50.9025    2.3632   14.8725 C.3         1 MOL       0.0089
     16 CAZ        52.2210    2.0983   15.5137 C.ar        1 MOL      -0.0406
     17 CBA        53.4209    2.4484   14.8508 C.ar        1 MOL      -0.0603
     18 CBB        54.6679    2.2502   15.4746 C.ar        1 MOL      -0.0686
     19 CBC        54.7252    1.6972   16.7626 C.ar        1 MOL      -0.0687
     20 CBD        53.5424    1.3416   17.4329 C.ar        1 MOL      -0.0686
     21 CBE        52.2925    1.5419   16.8115 C.ar        1 MOL      -0.0603
     22 NAV        50.8419    0.5175   13.2430 N.am        1 MOL      -0.2761
     23 CAT        50.9050   -0.7763   12.9300 C.2         1 MOL       0.2026
     24 OAU        50.4206   -1.6139   13.6799 O.2         1 MOL      -0.3847
     25 CAP        51.3936   -1.1896   11.6878 C.ar        1 MOL       0.0397
     26 CAQ        52.5003   -0.5406   11.0911 C.ar        1 MOL      -0.0393
     27 CAO        50.7955   -2.2674   10.9855 C.ar        1 MOL      -0.0214
     28 CAN        51.2650   -2.6619    9.7156 C.ar        1 MOL       0.0754
     29 NAE        50.7035   -3.7245    9.0688 N.am        1 MOL      -0.1796
     30 CBT        51.0632   -5.0699    9.4082 C.3         1 MOL       0.0445
     31 SAB        49.4986   -3.4640    7.9086 S.o2        1 MOL       0.0593
     32 OAC        49.8841   -4.1543    6.5283 O.2         1 MOL      -0.1500
     33 OAD        48.1181   -4.0715    8.4160 O.2         1 MOL      -0.1500
     34 CAA        49.2001   -1.7290    7.5259 C.3         1 MOL       0.0790
     35 CAS        52.3525   -1.9774    9.1381 C.ar        1 MOL      -0.0214
     36 CAR        53.0023   -0.9269    9.8250 C.ar        1 MOL       0.0398
     37 CAL        54.1263   -0.3053    9.2822 C.2         1 MOL       0.2041
     38 OAM        54.1728   -0.0854    8.0789 O.2         1 MOL      -0.3845
     39 NBQ        55.1638   -0.0221   10.0602 N.am        1 MOL      -0.2723
     40 CBR        56.3778    0.6463    9.6749 C.3         1 MOL       0.0723
     41 CBS        57.5276    0.2083   10.6172 C.3         1 MOL      -0.0320
     42 CAI        56.1954    2.1307    9.7005 C.ar        1 MOL      -0.0183
     43 CAH        55.7357    2.7747   10.8753 C.ar        1 MOL      -0.0582
     44 CAG        55.5860    4.1727   10.9236 C.ar        1 MOL      -0.0685
     45 CAF        55.8913    4.9484    9.7924 C.ar        1 MOL      -0.0687
     46 CAK        56.3411    4.3285    8.6160 C.ar        1 MOL      -0.0685
     47 CAJ        56.4876    2.9265    8.5674 C.ar        1 MOL      -0.0582
     48 H1         44.1819   -0.4318    8.1633 H           1 MOL       0.0233
     49 H2         45.7636   -0.5058    8.9705 H           1 MOL       0.0233
     50 H3         44.3662    0.2251    9.7882 H           1 MOL       0.0233
     51 H4         43.2285   -1.9380    9.9437 H           1 MOL       0.0315
     52 H5         44.2069   -4.0463    9.0636 H           1 MOL       0.0233
     53 H6         45.6056   -3.1542    8.4317 H           1 MOL       0.0233
     54 H7         43.9917   -2.8722    7.7546 H           1 MOL       0.0233
     55 H8         45.9388   -2.9091   10.8370 H           1 MOL       0.0522
     56 H9         44.3969   -2.9105   11.6744 H           1 MOL       0.0522
     57 H10        44.8418   -0.9145   12.5777 H           1 MOL       0.1853
     58 H11        46.0896    0.7856   13.3023 H           1 MOL       0.1125
     59 H12        45.6313    1.8507   10.8568 H           1 MOL       0.0674
     60 H13        45.6089    4.1001   11.7187 H           1 MOL       0.0258
     61 H14        46.6641    3.6848   13.0689 H           1 MOL       0.0258
     62 H15        45.0354    2.9998   12.9776 H           1 MOL       0.0258
     63 H16        47.2202    3.0235   10.0665 H           1 MOL       0.2102
     64 H17        48.7477    0.7938   12.0861 H           1 MOL       0.2037
     65 H18        48.2560   -0.3307   13.1926 H           1 MOL       0.2037
     66 H19        48.0252    1.4688   14.8466 H           1 MOL       0.0839
     67 H20        48.6779    2.5258   13.5904 H           1 MOL       0.0839
     68 H21        50.0911    0.3800   15.1831 H           1 MOL       0.0632
     69 H22        50.2699    2.8932   15.5904 H           1 MOL       0.0450
     70 H23        51.0491    3.0455   14.0280 H           1 MOL       0.0450
     71 H24        53.4023    2.8560   13.9135 H           1 MOL       0.0557
     72 H25        55.5239    2.5190   14.9886 H           1 MOL       0.0599
     73 H26        55.6317    1.5595   17.2179 H           1 MOL       0.0559
     74 H27        53.5854    0.9468   18.3743 H           1 MOL       0.0599
     75 H28        51.4410    1.2920   17.3190 H           1 MOL       0.0557
     76 H29        51.1708    1.1418   12.5782 H           1 MOL       0.1852
     77 H30        52.9576    0.2288   11.5933 H           1 MOL       0.0576
     78 H31        49.9953   -2.7671   11.3872 H           1 MOL       0.0566
     79 H32        51.8160   -5.1129   10.1992 H           1 MOL       0.0517
     80 H33        51.4673   -5.5784    8.5312 H           1 MOL       0.0517
     81 H34        50.1838   -5.6143    9.7568 H           1 MOL       0.0517
     82 H35        48.4878   -1.6517    6.7059 H           1 MOL       0.0487
     83 H36        50.1354   -1.2505    7.2392 H           1 MOL       0.0487
     84 H37        48.7942   -1.2310    8.4025 H           1 MOL       0.0487
     85 H38        52.6980   -2.2803    8.2261 H           1 MOL       0.0566
     86 H39        55.1004   -0.2967   10.9900 H           1 MOL       0.1875
     87 H40        56.6589    0.3105    8.6714 H           1 MOL       0.0716
     88 H41        58.4643    0.6889   10.3268 H           1 MOL       0.0274
     89 H42        57.6675   -0.8728   10.5605 H           1 MOL       0.0274
     90 H43        57.3057    0.4710   11.6534 H           1 MOL       0.0274
     91 H44        55.5070    2.2261   11.7078 H           1 MOL       0.0557
     92 H45        55.2554    4.6220   11.7797 H           1 MOL       0.0599
     93 H46        55.7883    5.9630    9.8293 H           1 MOL       0.0559
     94 H47        56.5697    4.8936    7.7968 H           1 MOL       0.0599
     95 H48        56.8256    2.4972    7.7022 H           1 MOL       0.0557
@<TRIPOS>BOND
     1     1     2   1
     2     2     3   1
     3     2     4   1
     4     4     5   1
     5     5     6  am
     6     6     7   2
     7     6     8   1
     8     8     9   1
     9     8    12   1
    10     9    10   1
    11     9    11   1
    12    12    13   1
    13    13    14   1
    14    14    15   1
    15    14    22   1
    16    15    16   1
    17    16    17  ar
    18    16    21  ar
    19    17    18  ar
    20    18    19  ar
    21    19    20  ar
    22    20    21  ar
    23    22    23  am
    24    23    24   2
    25    23    25   1
    26    25    26  ar
    27    25    27  ar
    28    26    36  ar
    29    27    28  ar
    30    28    29   1
    31    28    35  ar
    32    29    30   1
    33    29    31  am
    34    31    32   2
    35    31    33   2
    36    31    34   1
    37    35    36  ar
    38    36    37   1
    39    37    38   2
    40    37    39  am
    41    39    40   1
    42    40    41   1
    43    40    42   1
    44    42    43  ar
    45    42    47  ar
    46    43    44  ar
    47    44    45  ar
    48    45    46  ar
    49    46    47  ar
    50     1    48   1
    51     1    49   1
    52     1    50   1
    53     2    51   1
    54     3    52   1
    55     3    53   1
    56     3    54   1
    57     4    55   1
    58     4    56   1
    59     5    57   1
    60     8    58   1
    61     9    59   1
    62    10    60   1
    63    10    61   1
    64    10    62   1
    65    11    63   1
    66    12    64   1
    67    12    65   1
    68    13    66   1
    69    13    67   1
    70    14    68   1
    71    15    69   1
    72    15    70   1
    73    17    71   1
    74    18    72   1
    75    19    73   1
    76    20    74   1
    77    21    75   1
    78    22    76   1
    79    26    77   1
    80    27    78   1
    81    30    79   1
    82    30    80   1
    83    30    81   1
    84    34    82   1
    85    34    83   1
    86    34    84   1
    87    35    85   1
    88    39    86   1
    89    40    87   1
    90    41    88   1
    91    41    89   1
    92    41    90   1
    93    43    91   1
    94    44    92   1
    95    45    93   1
    96    46    94   1
    97    47    95   1
@<TRIPOS>SUBSTRUCTURE
     1  MOL      1

