@<TRIPOS>MOLECULE
4gid_ligand_050
    95    97
SMALL
GAST_HUCK
****
This file was generated by PARSER (from files_GN.cpp)

@<TRIPOS>ATOM
      1 CBK        39.5610   -6.6640    8.7726 C.3         1 MOL      -0.0608
      2 CBL        39.3871   -8.1871    9.0541 C.3         1 MOL      -0.0265
      3 CBM        40.6557   -8.9707    8.6009 C.3         1 MOL      -0.0608
      4 CBN        39.0364   -8.5126   10.5388 C.3         1 MOL       0.0334
      5 NBO        38.0439   -7.6732   11.1392 N.am        1 MOL      -0.2820
      6 CBP        36.8932   -7.2940   10.5975 C.2         1 MOL       0.2271
      7 OBV        36.6305   -7.6520    9.4535 O.2         1 MOL      -0.3908
      8 CBG        35.8856   -6.6088   11.4233 C.3         1 MOL       0.0928
      9 CBH        34.4924   -6.3344   10.7651 C.3         1 MOL       0.1121
     10 CBJ        34.4776   -5.3827    9.5284 C.3         1 MOL      -0.0314
     11 OBI        33.8535   -7.5653   10.4014 O.3         1 MOL      -0.3840
     12 NBF        36.3812   -5.4385   12.2121 N.4         1 MOL       0.2497
     13 CAX        37.5147   -4.5691   11.7708 C.3         1 MOL      -0.0062
     14 CAW        38.0768   -3.6324   12.9047 C.3         1 MOL       0.0906
     15 CAY        39.5358   -3.9949   13.3599 C.3         1 MOL       0.0089
     16 CAZ        40.5936   -3.2086   12.6532 C.ar        1 MOL      -0.0406
     17 CBA        41.2044   -2.0961   13.2818 C.ar        1 MOL      -0.0603
     18 CBB        42.1864   -1.3406   12.6119 C.ar        1 MOL      -0.0686
     19 CBC        42.5761   -1.6916   11.3089 C.ar        1 MOL      -0.0687
     20 CBD        41.9868   -2.7997   10.6760 C.ar        1 MOL      -0.0686
     21 CBE        41.0030   -3.5528   11.3426 C.ar        1 MOL      -0.0603
     22 NAV        37.2199   -3.6599   14.0575 N.am        1 MOL      -0.2761
     23 CAT        36.3617   -2.7380   14.4854 C.2         1 MOL       0.2026
     24 OAU        36.1342   -1.7149   13.8439 O.2         1 MOL      -0.3847
     25 CAP        35.7292   -2.9312   15.7029 C.ar        1 MOL       0.0397
     26 CAQ        34.8824   -4.0504   15.8929 C.ar        1 MOL      -0.0393
     27 CAO        35.9668   -2.0669   16.7948 C.ar        1 MOL      -0.0214
     28 CAN        35.4126   -2.3263   18.0649 C.ar        1 MOL       0.0754
     29 NAE        35.7551   -1.5506   19.1349 N.am        1 MOL      -0.1796
     30 CBT        37.1162   -1.4704   19.5822 C.3         1 MOL       0.0445
     31 SAB        34.5889   -0.5926   19.8987 S.o2        1 MOL       0.0593
     32 OAC        35.2363    0.7886   20.3520 O.2         1 MOL      -0.1500
     33 OAD        33.4890   -0.1456   18.8392 O.2         1 MOL      -0.1500
     34 CAA        33.7424   -1.3666   21.2940 C.3         1 MOL       0.0790
     35 CAS        34.5689   -3.4454   18.2307 C.ar        1 MOL      -0.0214
     36 CAR        34.2820   -4.3020   17.1446 C.ar        1 MOL       0.0398
     37 CAL        33.4779   -5.4003   17.3034 C.2         1 MOL       0.2041
     38 OAM        32.2564   -5.2297   17.2912 O.2         1 MOL      -0.3845
     39 NBQ        34.0372   -6.5896   17.4928 N.am        1 MOL      -0.2723
     40 CBR        33.3802   -7.8465   17.7034 C.3         1 MOL       0.0723
     41 CBS        33.5291   -8.1886   19.2103 C.3         1 MOL      -0.0320
     42 CAI        33.9033   -8.9577   16.8411 C.ar        1 MOL      -0.0183
     43 CAH        33.2579  -10.2199   16.8841 C.ar        1 MOL      -0.0582
     44 CAG        33.7369  -11.3119   16.1381 C.ar        1 MOL      -0.0685
     45 CAF        34.8694  -11.1607   15.3203 C.ar        1 MOL      -0.0687
     46 CAK        35.5095   -9.9106   15.2324 C.ar        1 MOL      -0.0685
     47 CAJ        35.0289   -8.8218   15.9845 C.ar        1 MOL      -0.0582
     48 H1         39.8597   -6.4791    7.7363 H           1 MOL       0.0233
     49 H2         40.3240   -6.2388    9.4269 H           1 MOL       0.0233
     50 H3         38.6214   -6.1405    8.9453 H           1 MOL       0.0233
     51 H4         38.5465   -8.5292    8.4345 H           1 MOL       0.0315
     52 H5         40.5615  -10.0287    8.8723 H           1 MOL       0.0233
     53 H6         41.5498   -8.5590    9.0835 H           1 MOL       0.0233
     54 H7         40.7728   -8.9076    7.5140 H           1 MOL       0.0233
     55 H8         39.9427   -8.4255   11.1516 H           1 MOL       0.0522
     56 H9         38.6861   -9.5543   10.5950 H           1 MOL       0.0522
     57 H10        38.2168   -7.3919   12.0538 H           1 MOL       0.1853
     58 H11        35.6726   -7.3399   12.2142 H           1 MOL       0.1125
     59 H12        33.8399   -5.8889   11.5292 H           1 MOL       0.0674
     60 H13        33.5002   -5.4393    9.0410 H           1 MOL       0.0258
     61 H14        35.2503   -5.6607    8.8021 H           1 MOL       0.0258
     62 H15        34.6275   -4.3462    9.8395 H           1 MOL       0.0258
     63 H16        33.2494   -7.7750   11.1488 H           1 MOL       0.2102
     64 H17        36.6475   -5.7910   13.1381 H           1 MOL       0.2037
     65 H18        35.5707   -4.8199   12.3259 H           1 MOL       0.2037
     66 H19        37.1680   -3.9480   10.9451 H           1 MOL       0.0839
     67 H20        38.3064   -5.2033   11.3783 H           1 MOL       0.0839
     68 H21        38.1043   -2.6119   12.5060 H           1 MOL       0.0632
     69 H22        39.7156   -5.0671   13.2307 H           1 MOL       0.0450
     70 H23        39.6343   -3.8117   14.4374 H           1 MOL       0.0450
     71 H24        40.9340   -1.8210   14.2288 H           1 MOL       0.0557
     72 H25        42.6186   -0.5412   13.0785 H           1 MOL       0.0599
     73 H26        43.2900   -1.1430   10.8249 H           1 MOL       0.0559
     74 H27        42.2764   -3.0592    9.7330 H           1 MOL       0.0599
     75 H28        40.5941   -4.3578   10.8696 H           1 MOL       0.0557
     76 H29        37.3474   -4.4216   14.6524 H           1 MOL       0.1852
     77 H30        34.7024   -4.6917   15.1114 H           1 MOL       0.0576
     78 H31        36.6019   -1.2663   16.6784 H           1 MOL       0.0566
     79 H32        37.7736   -2.1588   19.0449 H           1 MOL       0.0517
     80 H33        37.1783   -1.7142   20.6445 H           1 MOL       0.0517
     81 H34        37.4920   -0.4574   19.4301 H           1 MOL       0.0517
     82 H35        32.9771   -0.6895   21.6725 H           1 MOL       0.0487
     83 H36        34.4588   -1.5764   22.0883 H           1 MOL       0.0487
     84 H37        33.2754   -2.2982   20.9747 H           1 MOL       0.0487
     85 H38        34.1779   -3.6420   19.1580 H           1 MOL       0.0566
     86 H39        35.0073   -6.6046   17.4986 H           1 MOL       0.1875
     87 H40        32.3094   -7.7514   17.4874 H           1 MOL       0.0716
     88 H41        32.9754   -9.0934   19.4688 H           1 MOL       0.0274
     89 H42        33.1404   -7.3731   19.8246 H           1 MOL       0.0274
     90 H43        34.5800   -8.3386   19.4657 H           1 MOL       0.0274
     91 H44        32.4312  -10.3610   17.4713 H           1 MOL       0.0557
     92 H45        33.2667  -12.2202   16.1957 H           1 MOL       0.0599
     93 H46        35.2264  -11.9572   14.7864 H           1 MOL       0.0559
     94 H47        36.3306   -9.7961   14.6306 H           1 MOL       0.0599
     95 H48        35.5230   -7.9294   15.9007 H           1 MOL       0.0557
@<TRIPOS>BOND
     1     1     2   1
     2     2     3   1
     3     2     4   1
     4     4     5   1
     5     5     6  am
     6     6     7   2
     7     6     8   1
     8     8     9   1
     9     8    12   1
    10     9    10   1
    11     9    11   1
    12    12    13   1
    13    13    14   1
    14    14    15   1
    15    14    22   1
    16    15    16   1
    17    16    17  ar
    18    16    21  ar
    19    17    18  ar
    20    18    19  ar
    21    19    20  ar
    22    20    21  ar
    23    22    23  am
    24    23    24   2
    25    23    25   1
    26    25    26  ar
    27    25    27  ar
    28    26    36  ar
    29    27    28  ar
    30    28    29   1
    31    28    35  ar
    32    29    30   1
    33    29    31  am
    34    31    32   2
    35    31    33   2
    36    31    34   1
    37    35    36  ar
    38    36    37   1
    39    37    38   2
    40    37    39  am
    41    39    40   1
    42    40    41   1
    43    40    42   1
    44    42    43  ar
    45    42    47  ar
    46    43    44  ar
    47    44    45  ar
    48    45    46  ar
    49    46    47  ar
    50     1    48   1
    51     1    49   1
    52     1    50   1
    53     2    51   1
    54     3    52   1
    55     3    53   1
    56     3    54   1
    57     4    55   1
    58     4    56   1
    59     5    57   1
    60     8    58   1
    61     9    59   1
    62    10    60   1
    63    10    61   1
    64    10    62   1
    65    11    63   1
    66    12    64   1
    67    12    65   1
    68    13    66   1
    69    13    67   1
    70    14    68   1
    71    15    69   1
    72    15    70   1
    73    17    71   1
    74    18    72   1
    75    19    73   1
    76    20    74   1
    77    21    75   1
    78    22    76   1
    79    26    77   1
    80    27    78   1
    81    30    79   1
    82    30    80   1
    83    30    81   1
    84    34    82   1
    85    34    83   1
    86    34    84   1
    87    35    85   1
    88    39    86   1
    89    40    87   1
    90    41    88   1
    91    41    89   1
    92    41    90   1
    93    43    91   1
    94    44    92   1
    95    45    93   1
    96    46    94   1
    97    47    95   1
@<TRIPOS>SUBSTRUCTURE
     1  MOL      1

