@<TRIPOS>MOLECULE
4gid_ligand_031
    95    97
SMALL
GAST_HUCK
****
This file was generated by PARSER (from files_GN.cpp)

@<TRIPOS>ATOM
      1 CBK        41.8062   -3.4979    8.9057 C.3         1 MOL      -0.0608
      2 CBL        42.9691   -4.3922    9.4158 C.3         1 MOL      -0.0265
      3 CBM        43.5040   -3.8867   10.7839 C.3         1 MOL      -0.0608
      4 CBN        42.6046   -5.9120    9.4034 C.3         1 MOL       0.0334
      5 NBO        41.5803   -6.2903   10.3304 N.am        1 MOL      -0.2820
      6 CBP        40.3399   -6.6812   10.0492 C.2         1 MOL       0.2271
      7 OBV        39.9259   -6.6184    8.8970 O.2         1 MOL      -0.3908
      8 CBG        39.3994   -6.9697   11.1326 C.3         1 MOL       0.0928
      9 CBH        38.3176   -8.0562   10.7663 C.3         1 MOL       0.1121
     10 CBJ        38.7263   -9.4889   11.1998 C.3         1 MOL      -0.0314
     11 OBI        37.0383   -7.7802   11.3475 O.3         1 MOL      -0.3840
     12 NBF        38.7522   -5.6991   11.5707 N.4         1 MOL       0.2497
     13 CAX        39.5732   -4.7507   12.3721 C.3         1 MOL      -0.0062
     14 CAW        38.7399   -3.4964   12.7599 C.3         1 MOL       0.0906
     15 CAY        39.6240   -2.2648   13.1816 C.3         1 MOL       0.0089
     16 CAZ        39.7232   -1.9744   14.6414 C.ar        1 MOL      -0.0406
     17 CBA        40.5443   -2.7605   15.4800 C.ar        1 MOL      -0.0603
     18 CBB        40.5955   -2.5218   16.8669 C.ar        1 MOL      -0.0686
     19 CBC        39.8263   -1.4878   17.4331 C.ar        1 MOL      -0.0687
     20 CBD        39.0226   -0.6818   16.6091 C.ar        1 MOL      -0.0686
     21 CBE        38.9803   -0.9165   15.2238 C.ar        1 MOL      -0.0603
     22 NAV        37.7667   -3.8941   13.7416 N.am        1 MOL      -0.2761
     23 CAT        36.7083   -3.2078   14.1502 C.2         1 MOL       0.2026
     24 OAU        36.4214   -2.1158   13.6794 O.2         1 MOL      -0.3847
     25 CAP        35.9807   -3.6897   15.2221 C.ar        1 MOL       0.0397
     26 CAQ        35.9941   -3.0211   16.4702 C.ar        1 MOL      -0.0393
     27 CAO        35.2497   -4.8923   15.1014 C.ar        1 MOL      -0.0214
     28 CAN        34.4941   -5.3885   16.1826 C.ar        1 MOL       0.0754
     29 NAE        33.7724   -6.5327   16.0470 N.am        1 MOL      -0.1796
     30 CBT        34.2161   -7.7646   16.6318 C.3         1 MOL       0.0445
     31 SAB        32.2787   -6.4336   15.2579 S.o2        1 MOL       0.0593
     32 OAC        31.1818   -5.8397   16.2440 O.2         1 MOL      -0.1500
     33 OAD        32.4186   -5.4617   14.0059 O.2         1 MOL      -0.1500
     34 CAA        31.6816   -8.0081   14.6135 C.3         1 MOL       0.0790
     35 CAS        34.5069   -4.7058   17.4144 C.ar        1 MOL      -0.0214
     36 CAR        35.2758   -3.5340   17.5788 C.ar        1 MOL       0.0398
     37 CAL        35.3816   -2.9558   18.8270 C.2         1 MOL       0.2041
     38 OAM        34.3735   -2.4827   19.3453 O.2         1 MOL      -0.3845
     39 NBQ        36.5311   -3.0647   19.4832 N.am        1 MOL      -0.2723
     40 CBR        36.8176   -2.6601   20.8359 C.3         1 MOL       0.0723
     41 CBS        36.1728   -3.6542   21.8461 C.3         1 MOL      -0.0320
     42 CAI        36.5519   -1.1954   21.0284 C.ar        1 MOL      -0.0183
     43 CAH        35.7718   -0.6665   22.0857 C.ar        1 MOL      -0.0582
     44 CAG        35.5461    0.7185   22.2006 C.ar        1 MOL      -0.0685
     45 CAF        36.0993    1.6017   21.2580 C.ar        1 MOL      -0.0687
     46 CAK        36.8832    1.1021   20.2071 C.ar        1 MOL      -0.0685
     47 CAJ        37.1140   -0.2812   20.1008 C.ar        1 MOL      -0.0582
     48 H1         42.1450   -2.4677    8.7839 H           1 MOL       0.0233
     49 H2         40.9760   -3.5027    9.6076 H           1 MOL       0.0233
     50 H3         41.4469   -3.8487    7.9376 H           1 MOL       0.0233
     51 H4         43.7868   -4.2700    8.6983 H           1 MOL       0.0315
     52 H5         44.4008   -4.4382   11.0637 H           1 MOL       0.0233
     53 H6         42.7592   -4.0093   11.5687 H           1 MOL       0.0233
     54 H7         43.7682   -2.8282   10.7183 H           1 MOL       0.0233
     55 H8         43.4937   -6.4947    9.6579 H           1 MOL       0.0522
     56 H9         42.3366   -6.1871    8.3783 H           1 MOL       0.0522
     57 H10        41.8204   -6.2507   11.2694 H           1 MOL       0.1853
     58 H11        39.9504   -7.3650   11.9959 H           1 MOL       0.1125
     59 H12        38.1428   -8.0761    9.6865 H           1 MOL       0.0674
     60 H13        37.9720  -10.2104   10.8755 H           1 MOL       0.0258
     61 H14        38.8063   -9.5444   12.2867 H           1 MOL       0.0258
     62 H15        39.6862   -9.7649   10.7581 H           1 MOL       0.0258
     63 H16        37.1265   -7.9940   12.2977 H           1 MOL       0.2102
     64 H17        37.9395   -5.9457   12.1375 H           1 MOL       0.2037
     65 H18        38.4231   -5.2039   10.7399 H           1 MOL       0.2037
     66 H19        40.4316   -4.4428   11.7799 H           1 MOL       0.0839
     67 H20        39.9479   -5.2411   13.2712 H           1 MOL       0.0839
     68 H21        38.2027   -3.2085   11.8512 H           1 MOL       0.0632
     69 H22        39.2054   -1.3896   12.6800 H           1 MOL       0.0450
     70 H23        40.6368   -2.3589   12.7839 H           1 MOL       0.0450
     71 H24        41.1240   -3.5014   15.0824 H           1 MOL       0.0557
     72 H25        41.1936   -3.0974   17.4633 H           1 MOL       0.0599
     73 H26        39.8525   -1.3217   18.4428 H           1 MOL       0.0559
     74 H27        38.4616    0.0716   17.0150 H           1 MOL       0.0599
     75 H28        38.3855   -0.3204   14.6431 H           1 MOL       0.0557
     76 H29        37.9132   -4.7522   14.1720 H           1 MOL       0.1852
     77 H30        36.5430   -2.1626   16.5765 H           1 MOL       0.0576
     78 H31        35.2427   -5.4102   14.2161 H           1 MOL       0.0566
     79 H32        35.1812   -7.6656   17.1389 H           1 MOL       0.0517
     80 H33        34.3288   -8.5202   15.8523 H           1 MOL       0.0517
     81 H34        33.4853   -8.1155   17.3647 H           1 MOL       0.0517
     82 H35        30.7399   -7.8517   14.0885 H           1 MOL       0.0487
     83 H36        31.5238   -8.7026   15.4377 H           1 MOL       0.0487
     84 H37        32.4163   -8.4242   13.9239 H           1 MOL       0.0487
     85 H38        33.9790   -5.0898   18.2013 H           1 MOL       0.0566
     86 H39        37.2695   -3.4757   18.9986 H           1 MOL       0.1875
     87 H40        37.8969   -2.7903   20.9644 H           1 MOL       0.0716
     88 H41        36.4662   -3.4029   22.8678 H           1 MOL       0.0274
     89 H42        36.5068   -4.6748   21.6386 H           1 MOL       0.0274
     90 H43        35.0827   -3.6317   21.7835 H           1 MOL       0.0274
     91 H44        35.3577   -1.2759   22.7929 H           1 MOL       0.0557
     92 H45        34.9793    1.0820   22.9671 H           1 MOL       0.0599
     93 H46        35.9253    2.6062   21.3345 H           1 MOL       0.0559
     94 H47        37.2855    1.7417   19.5182 H           1 MOL       0.0599
     95 H48        37.6930   -0.6219   19.3313 H           1 MOL       0.0557
@<TRIPOS>BOND
     1     1     2   1
     2     2     3   1
     3     2     4   1
     4     4     5   1
     5     5     6  am
     6     6     7   2
     7     6     8   1
     8     8     9   1
     9     8    12   1
    10     9    10   1
    11     9    11   1
    12    12    13   1
    13    13    14   1
    14    14    15   1
    15    14    22   1
    16    15    16   1
    17    16    17  ar
    18    16    21  ar
    19    17    18  ar
    20    18    19  ar
    21    19    20  ar
    22    20    21  ar
    23    22    23  am
    24    23    24   2
    25    23    25   1
    26    25    26  ar
    27    25    27  ar
    28    26    36  ar
    29    27    28  ar
    30    28    29   1
    31    28    35  ar
    32    29    30   1
    33    29    31  am
    34    31    32   2
    35    31    33   2
    36    31    34   1
    37    35    36  ar
    38    36    37   1
    39    37    38   2
    40    37    39  am
    41    39    40   1
    42    40    41   1
    43    40    42   1
    44    42    43  ar
    45    42    47  ar
    46    43    44  ar
    47    44    45  ar
    48    45    46  ar
    49    46    47  ar
    50     1    48   1
    51     1    49   1
    52     1    50   1
    53     2    51   1
    54     3    52   1
    55     3    53   1
    56     3    54   1
    57     4    55   1
    58     4    56   1
    59     5    57   1
    60     8    58   1
    61     9    59   1
    62    10    60   1
    63    10    61   1
    64    10    62   1
    65    11    63   1
    66    12    64   1
    67    12    65   1
    68    13    66   1
    69    13    67   1
    70    14    68   1
    71    15    69   1
    72    15    70   1
    73    17    71   1
    74    18    72   1
    75    19    73   1
    76    20    74   1
    77    21    75   1
    78    22    76   1
    79    26    77   1
    80    27    78   1
    81    30    79   1
    82    30    80   1
    83    30    81   1
    84    34    82   1
    85    34    83   1
    86    34    84   1
    87    35    85   1
    88    39    86   1
    89    40    87   1
    90    41    88   1
    91    41    89   1
    92    41    90   1
    93    43    91   1
    94    44    92   1
    95    45    93   1
    96    46    94   1
    97    47    95   1
@<TRIPOS>SUBSTRUCTURE
     1  MOL      1

