@<TRIPOS>MOLECULE
4gid_ligand_038
    95    97
SMALL
GAST_HUCK
****
This file was generated by PARSER (from files_GN.cpp)

@<TRIPOS>ATOM
      1 CBK        39.6753   -1.6661   15.0515 C.3         1 MOL      -0.0608
      2 CBL        40.2170   -1.6808   13.5962 C.3         1 MOL      -0.0265
      3 CBM        41.1693   -0.4786   13.3414 C.3         1 MOL      -0.0608
      4 CBN        40.8943   -3.0454   13.2795 C.3         1 MOL       0.0334
      5 NBO        41.1949   -3.1502   11.8858 N.am        1 MOL      -0.2820
      6 CBP        42.3926   -3.3087   11.3296 C.2         1 MOL       0.2271
      7 OBV        43.4063   -3.4183   12.0132 O.2         1 MOL      -0.3908
      8 CBG        42.4874   -3.5015    9.8803 C.3         1 MOL       0.0928
      9 CBH        42.4859   -5.0064    9.4145 C.3         1 MOL       0.1121
     10 CBJ        42.0942   -6.0762   10.4736 C.3         1 MOL      -0.0314
     11 OBI        41.5908   -5.1588    8.3018 O.3         1 MOL      -0.3840
     12 NBF        43.6052   -2.7390    9.2329 N.4         1 MOL       0.2497
     13 CAX        44.9382   -2.6278    9.8978 C.3         1 MOL      -0.0062
     14 CAW        45.0693   -1.3476   10.7968 C.3         1 MOL       0.0906
     15 CAY        45.6745   -0.1054   10.0673 C.3         1 MOL       0.0089
     16 CAZ        46.0144    1.0071   10.9994 C.ar        1 MOL      -0.0406
     17 CBA        45.0572    1.9893   11.3425 C.ar        1 MOL      -0.0603
     18 CBB        45.3803    3.0360   12.2285 C.ar        1 MOL      -0.0686
     19 CBC        46.6632    3.1001   12.8083 C.ar        1 MOL      -0.0687
     20 CBD        47.6138    2.1100   12.5082 C.ar        1 MOL      -0.0686
     21 CBE        47.2860    1.0687   11.6213 C.ar        1 MOL      -0.0603
     22 NAV        45.7712   -1.5798   12.0264 N.am        1 MOL      -0.2761
     23 CAT        46.9787   -2.1013   12.2083 C.2         1 MOL       0.2026
     24 OAU        47.5877   -2.6302   11.2851 O.2         1 MOL      -0.3847
     25 CAP        47.5322   -2.0797   13.4846 C.ar        1 MOL       0.0397
     26 CAQ        48.2106   -3.2045   14.0135 C.ar        1 MOL      -0.0393
     27 CAO        47.3894   -0.9386   14.3083 C.ar        1 MOL      -0.0214
     28 CAN        47.8485   -0.9381   15.6399 C.ar        1 MOL       0.0754
     29 NAE        47.7777    0.1950   16.3838 N.am        1 MOL      -0.1796
     30 CBT        48.8176    1.1773   16.2912 C.3         1 MOL       0.0445
     31 SAB        46.3636    0.5030   17.2644 S.o2        1 MOL       0.0593
     32 OAC        46.6675    1.5795   18.3948 O.2         1 MOL      -0.1500
     33 OAD        45.1989    1.0840   16.3487 O.2         1 MOL      -0.1500
     34 CAA        45.7657   -0.9310   18.1800 C.3         1 MOL       0.0790
     35 CAS        48.4354   -2.1020   16.1725 C.ar        1 MOL      -0.0214
     36 CAR        48.6206   -3.2474   15.3665 C.ar        1 MOL       0.0398
     37 CAL        49.1599   -4.3966   15.9159 C.2         1 MOL       0.2041
     38 OAM        50.1701   -4.8675   15.4116 O.2         1 MOL      -0.3845
     39 NBQ        48.5335   -4.9945   16.9254 N.am        1 MOL      -0.2723
     40 CBR        48.8952   -6.2241   17.5774 C.3         1 MOL       0.0723
     41 CBS        47.9273   -7.3254   17.0628 C.3         1 MOL      -0.0320
     42 CAI        48.9381   -5.9848   19.0582 C.ar        1 MOL      -0.0183
     43 CAH        48.2633   -6.7917   20.0110 C.ar        1 MOL      -0.0582
     44 CAG        48.3284   -6.5041   21.3859 C.ar        1 MOL      -0.0685
     45 CAF        49.0772   -5.4061   21.8407 C.ar        1 MOL      -0.0687
     46 CAK        49.7661   -4.6014   20.9198 C.ar        1 MOL      -0.0685
     47 CAJ        49.7008   -4.8924   19.5439 C.ar        1 MOL      -0.0582
     48 H1         39.1698   -0.7199   15.2603 H           1 MOL       0.0233
     49 H2         40.4880   -1.7954   15.7709 H           1 MOL       0.0233
     50 H3         38.9536   -2.4758   15.1910 H           1 MOL       0.0233
     51 H4         39.3567   -1.5713   12.9267 H           1 MOL       0.0315
     52 H5         41.5494   -0.4972   12.3170 H           1 MOL       0.0233
     53 H6         42.0191   -0.5017   14.0289 H           1 MOL       0.0233
     54 H7         40.6286    0.4598   13.4819 H           1 MOL       0.0233
     55 H8         40.1973   -3.8574   13.4966 H           1 MOL       0.0522
     56 H9         41.7742   -3.1794   13.9123 H           1 MOL       0.0522
     57 H10        40.4336   -3.1290   11.2802 H           1 MOL       0.1853
     58 H11        41.5903   -3.0519    9.4354 H           1 MOL       0.1125
     59 H12        43.4828   -5.2681    9.0501 H           1 MOL       0.0674
     60 H13        42.0043   -7.0584   10.0013 H           1 MOL       0.0258
     61 H14        41.1378   -5.8247   10.9422 H           1 MOL       0.0258
     62 H15        42.8643   -6.1413   11.2474 H           1 MOL       0.0258
     63 H16        40.7058   -4.9035    8.6471 H           1 MOL       0.2102
     64 H17        43.2711   -1.7867    9.0558 H           1 MOL       0.2037
     65 H18        43.7616   -3.1699    8.3145 H           1 MOL       0.2037
     66 H19        45.6938   -2.6091    9.1100 H           1 MOL       0.0839
     67 H20        45.1186   -3.5343   10.4887 H           1 MOL       0.0839
     68 H21        44.0590   -1.0614   11.1092 H           1 MOL       0.0632
     69 H22        44.9723    0.2690    9.3185 H           1 MOL       0.0450
     70 H23        46.5702   -0.4212    9.5250 H           1 MOL       0.0450
     71 H24        44.1187    1.9603   10.9360 H           1 MOL       0.0557
     72 H25        44.6823    3.7499   12.4642 H           1 MOL       0.0599
     73 H26        46.9059    3.8644   13.4443 H           1 MOL       0.0559
     74 H27        48.5396    2.1388   12.9526 H           1 MOL       0.0599
     75 H28        47.9797    0.3420   11.4529 H           1 MOL       0.0557
     76 H29        45.3254   -1.2446   12.8184 H           1 MOL       0.1852
     77 H30        48.3287   -4.0332   13.4277 H           1 MOL       0.0576
     78 H31        46.9510   -0.0906   13.9369 H           1 MOL       0.0566
     79 H32        49.6775    0.8249   15.7157 H           1 MOL       0.0517
     80 H33        49.1748    1.4401   17.2870 H           1 MOL       0.0517
     81 H34        48.4345    2.0691   15.7981 H           1 MOL       0.0517
     82 H35        44.8820   -0.6546   18.7561 H           1 MOL       0.0487
     83 H36        46.5438   -1.2826   18.8577 H           1 MOL       0.0487
     84 H37        45.5049   -1.7291   17.4846 H           1 MOL       0.0487
     85 H38        48.7530   -2.0989   17.1463 H           1 MOL       0.0566
     86 H39        47.6962   -4.5925   17.2101 H           1 MOL       0.1875
     87 H40        49.9008   -6.5422   17.2836 H           1 MOL       0.0716
     88 H41        48.1726   -8.2896   17.5150 H           1 MOL       0.0274
     89 H42        48.0192   -7.4281   15.9806 H           1 MOL       0.0274
     90 H43        46.8892   -7.0736   17.2966 H           1 MOL       0.0274
     91 H44        47.7078   -7.6003   19.7233 H           1 MOL       0.0557
     92 H45        47.8308   -7.0934   22.0589 H           1 MOL       0.0599
     93 H46        49.1200   -5.1910   22.8393 H           1 MOL       0.0559
     94 H47        50.3150   -3.8034   21.2454 H           1 MOL       0.0599
     95 H48        50.2120   -4.2936   18.8914 H           1 MOL       0.0557
@<TRIPOS>BOND
     1     1     2   1
     2     2     3   1
     3     2     4   1
     4     4     5   1
     5     5     6  am
     6     6     7   2
     7     6     8   1
     8     8     9   1
     9     8    12   1
    10     9    10   1
    11     9    11   1
    12    12    13   1
    13    13    14   1
    14    14    15   1
    15    14    22   1
    16    15    16   1
    17    16    17  ar
    18    16    21  ar
    19    17    18  ar
    20    18    19  ar
    21    19    20  ar
    22    20    21  ar
    23    22    23  am
    24    23    24   2
    25    23    25   1
    26    25    26  ar
    27    25    27  ar
    28    26    36  ar
    29    27    28  ar
    30    28    29   1
    31    28    35  ar
    32    29    30   1
    33    29    31  am
    34    31    32   2
    35    31    33   2
    36    31    34   1
    37    35    36  ar
    38    36    37   1
    39    37    38   2
    40    37    39  am
    41    39    40   1
    42    40    41   1
    43    40    42   1
    44    42    43  ar
    45    42    47  ar
    46    43    44  ar
    47    44    45  ar
    48    45    46  ar
    49    46    47  ar
    50     1    48   1
    51     1    49   1
    52     1    50   1
    53     2    51   1
    54     3    52   1
    55     3    53   1
    56     3    54   1
    57     4    55   1
    58     4    56   1
    59     5    57   1
    60     8    58   1
    61     9    59   1
    62    10    60   1
    63    10    61   1
    64    10    62   1
    65    11    63   1
    66    12    64   1
    67    12    65   1
    68    13    66   1
    69    13    67   1
    70    14    68   1
    71    15    69   1
    72    15    70   1
    73    17    71   1
    74    18    72   1
    75    19    73   1
    76    20    74   1
    77    21    75   1
    78    22    76   1
    79    26    77   1
    80    27    78   1
    81    30    79   1
    82    30    80   1
    83    30    81   1
    84    34    82   1
    85    34    83   1
    86    34    84   1
    87    35    85   1
    88    39    86   1
    89    40    87   1
    90    41    88   1
    91    41    89   1
    92    41    90   1
    93    43    91   1
    94    44    92   1
    95    45    93   1
    96    46    94   1
    97    47    95   1
@<TRIPOS>SUBSTRUCTURE
     1  MOL      1

