@<TRIPOS>MOLECULE
4gid_ligand_037
    95    97
SMALL
GAST_HUCK
****
This file was generated by PARSER (from files_GN.cpp)

@<TRIPOS>ATOM
      1 CBK        40.5524   -8.1702    8.7765 C.3         1 MOL      -0.0608
      2 CBL        41.2277   -8.0040   10.1649 C.3         1 MOL      -0.0265
      3 CBM        42.6690   -7.4436   10.0389 C.3         1 MOL      -0.0608
      4 CBN        40.3716   -7.1540   11.1489 C.3         1 MOL       0.0334
      5 NBO        40.4117   -5.7481   10.8636 N.am        1 MOL      -0.2820
      6 CBP        41.2956   -4.8684   11.3342 C.2         1 MOL       0.2271
      7 OBV        42.2126   -5.2255   12.0658 O.2         1 MOL      -0.3908
      8 CBG        41.1397   -3.4358   11.0676 C.3         1 MOL       0.0928
      9 CBH        42.4844   -2.6291   10.9797 C.3         1 MOL       0.1121
     10 CBJ        43.0447   -2.1327   12.3349 C.3         1 MOL      -0.0314
     11 OBI        43.4926   -3.3568   10.2694 O.3         1 MOL      -0.3840
     12 NBF        40.1364   -2.7605   11.9537 N.4         1 MOL       0.2497
     13 CAX        40.0368   -3.1027   13.4000 C.3         1 MOL      -0.0062
     14 CAW        39.2498   -2.0323   14.2319 C.3         1 MOL       0.0906
     15 CAY        40.1739   -1.1222   15.1194 C.3         1 MOL       0.0089
     16 CAZ        40.3760   -1.5838   16.5379 C.ar        1 MOL      -0.0406
     17 CBA        40.9415   -2.8525   16.8283 C.ar        1 MOL      -0.0603
     18 CBB        41.0927   -3.3052   18.1524 C.ar        1 MOL      -0.0686
     19 CBC        40.7147   -2.4763   19.2226 C.ar        1 MOL      -0.0687
     20 CBD        40.1912   -1.1966   18.9633 C.ar        1 MOL      -0.0686
     21 CBE        40.0210   -0.7557   17.6355 C.ar        1 MOL      -0.0603
     22 NAV        38.2356   -2.6397   15.0577 N.am        1 MOL      -0.2761
     23 CAT        36.9414   -2.7740   14.8020 C.2         1 MOL       0.2026
     24 OAU        36.4845   -2.4666   13.7086 O.2         1 MOL      -0.3847
     25 CAP        36.1124   -3.3717   15.7417 C.ar        1 MOL       0.0397
     26 CAQ        36.0376   -2.8871   17.0706 C.ar        1 MOL      -0.0393
     27 CAO        35.3531   -4.5083   15.3965 C.ar        1 MOL      -0.0214
     28 CAN        34.5486   -5.1611   16.3544 C.ar        1 MOL       0.0754
     29 NAE        33.9602   -6.3496   16.0421 N.am        1 MOL      -0.1796
     30 CBT        34.6562   -7.5879   16.2410 C.3         1 MOL       0.0445
     31 SAB        32.4470   -6.3145   15.2850 S.o2        1 MOL       0.0593
     32 OAC        31.3585   -5.7424   16.2929 O.2         1 MOL      -0.1500
     33 OAD        32.5320   -5.3601   14.0141 O.2         1 MOL      -0.1500
     34 CAA        31.8623   -7.9133   14.6889 C.3         1 MOL       0.0790
     35 CAS        34.4405   -4.6288   17.6550 C.ar        1 MOL      -0.0214
     36 CAR        35.1834   -3.4862   18.0290 C.ar        1 MOL       0.0398
     37 CAL        35.1065   -2.9828   19.3206 C.2         1 MOL       0.2041
     38 OAM        34.0116   -2.6726   19.7731 O.2         1 MOL      -0.3845
     39 NBQ        36.2083   -2.8871   20.0561 N.am        1 MOL      -0.2723
     40 CBR        36.3351   -2.4014   21.4070 C.3         1 MOL       0.0723
     41 CBS        35.4780   -3.2687   22.3766 C.3         1 MOL      -0.0320
     42 CAI        36.1944   -0.9069   21.4973 C.ar        1 MOL      -0.0183
     43 CAH        35.4685   -0.2493   22.5259 C.ar        1 MOL      -0.0582
     44 CAG        35.4294    1.1563   22.6098 C.ar        1 MOL      -0.0685
     45 CAF        36.1029    1.9362   21.6561 C.ar        1 MOL      -0.0687
     46 CAK        36.8271    1.3107   20.6277 C.ar        1 MOL      -0.0685
     47 CAJ        36.8761   -0.0948   20.5551 C.ar        1 MOL      -0.0582
     48 H1         41.1516   -8.8272    8.1404 H           1 MOL       0.0233
     49 H2         40.4443   -7.2053    8.2786 H           1 MOL       0.0233
     50 H3         39.5632   -8.6210    8.8866 H           1 MOL       0.0233
     51 H4         41.3096   -9.0041   10.5994 H           1 MOL       0.0315
     52 H5         43.0989   -7.3066   11.0337 H           1 MOL       0.0233
     53 H6         42.6712   -6.4815    9.5224 H           1 MOL       0.0233
     54 H7         43.3070   -8.1331    9.4824 H           1 MOL       0.0233
     55 H8         40.7029   -7.3586   12.1729 H           1 MOL       0.0522
     56 H9         39.3307   -7.4737   11.0950 H           1 MOL       0.0522
     57 H10        39.7107   -5.3985   10.2829 H           1 MOL       0.1853
     58 H11        40.7198   -3.3578   10.0592 H           1 MOL       0.1125
     59 H12        42.2903   -1.7343   10.3815 H           1 MOL       0.0674
     60 H13        44.0183   -1.6548   12.1904 H           1 MOL       0.0258
     61 H14        43.1598   -2.9613   13.0315 H           1 MOL       0.0258
     62 H15        42.3681   -1.3977   12.7778 H           1 MOL       0.0258
     63 H16        43.7089   -4.1339   10.8298 H           1 MOL       0.2102
     64 H17        39.2176   -2.9483   11.5472 H           1 MOL       0.2037
     65 H18        40.2969   -1.7537   11.8706 H           1 MOL       0.2037
     66 H19        41.0465   -3.2237   13.7971 H           1 MOL       0.0839
     67 H20        39.5387   -4.0747   13.4714 H           1 MOL       0.0839
     68 H21        38.7530   -1.3768   13.5037 H           1 MOL       0.0632
     69 H22        39.7217   -0.1251   15.1314 H           1 MOL       0.0450
     70 H23        41.1518   -1.0085   14.6313 H           1 MOL       0.0450
     71 H24        41.2371   -3.4716   16.0777 H           1 MOL       0.0557
     72 H25        41.4819   -4.2332   18.3350 H           1 MOL       0.0599
     73 H26        40.8234   -2.8040   20.1847 H           1 MOL       0.0559
     74 H27        39.9303   -0.5895   19.7415 H           1 MOL       0.0599
     75 H28        39.6233    0.1744   17.4780 H           1 MOL       0.0557
     76 H29        38.5358   -3.0033   15.9046 H           1 MOL       0.1852
     77 H30        36.5872   -2.0614   17.3365 H           1 MOL       0.0576
     78 H31        35.4246   -4.9084   14.4543 H           1 MOL       0.0566
     79 H32        35.6349   -7.4516   16.7117 H           1 MOL       0.0517
     80 H33        34.8182   -8.0812   15.2809 H           1 MOL       0.0517
     81 H34        34.0654   -8.2443   16.8822 H           1 MOL       0.0517
     82 H35        30.8961   -7.7847   14.2028 H           1 MOL       0.0487
     83 H36        31.7547   -8.6035   15.5258 H           1 MOL       0.0487
     84 H37        32.5730   -8.3237   13.9716 H           1 MOL       0.0487
     85 H38        33.8602   -5.1153   18.3458 H           1 MOL       0.0566
     86 H39        37.0281   -3.1987   19.6385 H           1 MOL       0.1875
     87 H40        37.3720   -2.6021   21.6867 H           1 MOL       0.0716
     88 H41        35.7451   -3.0608   23.4138 H           1 MOL       0.0274
     89 H42        35.6570   -4.3290   22.1869 H           1 MOL       0.0274
     90 H43        34.4137   -3.0692   22.2444 H           1 MOL       0.0274
     91 H44        34.9725   -0.7777   23.2446 H           1 MOL       0.0557
     92 H45        34.9214    1.6104   23.3732 H           1 MOL       0.0599
     93 H46        36.0706    2.9562   21.7124 H           1 MOL       0.0559
     94 H47        37.3207    1.8752   19.9324 H           1 MOL       0.0599
     95 H48        37.4224   -0.5220   19.8033 H           1 MOL       0.0557
@<TRIPOS>BOND
     1     1     2   1
     2     2     3   1
     3     2     4   1
     4     4     5   1
     5     5     6  am
     6     6     7   2
     7     6     8   1
     8     8     9   1
     9     8    12   1
    10     9    10   1
    11     9    11   1
    12    12    13   1
    13    13    14   1
    14    14    15   1
    15    14    22   1
    16    15    16   1
    17    16    17  ar
    18    16    21  ar
    19    17    18  ar
    20    18    19  ar
    21    19    20  ar
    22    20    21  ar
    23    22    23  am
    24    23    24   2
    25    23    25   1
    26    25    26  ar
    27    25    27  ar
    28    26    36  ar
    29    27    28  ar
    30    28    29   1
    31    28    35  ar
    32    29    30   1
    33    29    31  am
    34    31    32   2
    35    31    33   2
    36    31    34   1
    37    35    36  ar
    38    36    37   1
    39    37    38   2
    40    37    39  am
    41    39    40   1
    42    40    41   1
    43    40    42   1
    44    42    43  ar
    45    42    47  ar
    46    43    44  ar
    47    44    45  ar
    48    45    46  ar
    49    46    47  ar
    50     1    48   1
    51     1    49   1
    52     1    50   1
    53     2    51   1
    54     3    52   1
    55     3    53   1
    56     3    54   1
    57     4    55   1
    58     4    56   1
    59     5    57   1
    60     8    58   1
    61     9    59   1
    62    10    60   1
    63    10    61   1
    64    10    62   1
    65    11    63   1
    66    12    64   1
    67    12    65   1
    68    13    66   1
    69    13    67   1
    70    14    68   1
    71    15    69   1
    72    15    70   1
    73    17    71   1
    74    18    72   1
    75    19    73   1
    76    20    74   1
    77    21    75   1
    78    22    76   1
    79    26    77   1
    80    27    78   1
    81    30    79   1
    82    30    80   1
    83    30    81   1
    84    34    82   1
    85    34    83   1
    86    34    84   1
    87    35    85   1
    88    39    86   1
    89    40    87   1
    90    41    88   1
    91    41    89   1
    92    41    90   1
    93    43    91   1
    94    44    92   1
    95    45    93   1
    96    46    94   1
    97    47    95   1
@<TRIPOS>SUBSTRUCTURE
     1  MOL      1

