@<TRIPOS>MOLECULE
4gid_ligand_019
    95    97
SMALL
GAST_HUCK
****
This file was generated by PARSER (from files_GN.cpp)

@<TRIPOS>ATOM
      1 CBK        45.2159   -3.9111    8.0905 C.3         1 MOL      -0.0608
      2 CBL        44.4085   -2.9905    9.0449 C.3         1 MOL      -0.0265
      3 CBM        42.9617   -2.7833    8.5154 C.3         1 MOL      -0.0608
      4 CBN        44.4917   -3.4551   10.5403 C.3         1 MOL       0.0334
      5 NBO        43.3833   -4.1708   11.0952 N.am        1 MOL      -0.2820
      6 CBP        42.8137   -5.3053   10.6925 C.2         1 MOL       0.2271
      7 OBV        43.2832   -5.8862    9.7227 O.2         1 MOL      -0.3908
      8 CBG        41.7211   -5.9037   11.4770 C.3         1 MOL       0.0928
      9 CBH        41.2544   -7.3349   11.0207 C.3         1 MOL       0.1121
     10 CBJ        40.5182   -7.3866    9.6561 C.3         1 MOL      -0.0314
     11 OBI        42.3399   -8.2658   11.0064 O.3         1 MOL      -0.3840
     12 NBF        40.4893   -5.0608   11.6233 N.4         1 MOL       0.2497
     13 CAX        40.6227   -3.6741   12.1403 C.3         1 MOL      -0.0062
     14 CAW        39.3537   -3.0390   12.8155 C.3         1 MOL       0.0906
     15 CAY        39.5819   -2.8145   14.3591 C.3         1 MOL       0.0089
     16 CAZ        38.7940   -1.7867   15.1036 C.ar        1 MOL      -0.0406
     17 CBA        39.2519   -1.4125   16.3919 C.ar        1 MOL      -0.0603
     18 CBB        38.6399   -0.3708   17.1095 C.ar        1 MOL      -0.0686
     19 CBC        37.5345    0.2983   16.5600 C.ar        1 MOL      -0.0687
     20 CBD        37.0426   -0.0791   15.3002 C.ar        1 MOL      -0.0686
     21 CBE        37.6693   -1.1110   14.5751 C.ar        1 MOL      -0.0603
     22 NAV        38.1786   -3.7331   12.3334 N.am        1 MOL      -0.2761
     23 CAT        37.1593   -4.3059   12.9771 C.2         1 MOL       0.2026
     24 OAU        37.0950   -4.2037   14.1957 O.2         1 MOL      -0.3847
     25 CAP        36.1549   -5.0254   12.2999 C.ar        1 MOL       0.0397
     26 CAQ        35.3666   -5.9911   12.9800 C.ar        1 MOL      -0.0393
     27 CAO        35.8547   -4.7997   10.9319 C.ar        1 MOL      -0.0214
     28 CAN        34.8358   -5.5114   10.2542 C.ar        1 MOL       0.0754
     29 NAE        34.4494   -5.1772    8.9717 N.am        1 MOL      -0.1796
     30 CBT        33.0820   -4.8339    8.6753 C.3         1 MOL       0.0445
     31 SAB        35.5885   -4.9629    7.7349 S.o2        1 MOL       0.0593
     32 OAC        34.9324   -5.2744    6.3181 O.2         1 MOL      -0.1500
     33 OAD        36.1024   -3.4572    7.7203 O.2         1 MOL      -0.1500
     34 CAA        36.9817   -6.1021    7.8309 C.3         1 MOL       0.0790
     35 CAS        34.1409   -6.5188   10.9610 C.ar        1 MOL      -0.0214
     36 CAR        34.3678   -6.7601   12.3338 C.ar        1 MOL       0.0398
     37 CAL        33.6074   -7.7035   13.0359 C.2         1 MOL       0.2041
     38 OAM        33.2417   -8.7314   12.4765 O.2         1 MOL      -0.3845
     39 NBQ        33.2037   -7.4540   14.2792 N.am        1 MOL      -0.2723
     40 CBR        32.4231   -8.2829   15.1657 C.3         1 MOL       0.0723
     41 CBS        33.3043   -9.4874   15.6038 C.3         1 MOL      -0.0320
     42 CAI        31.0336   -8.5930   14.6746 C.ar        1 MOL      -0.0183
     43 CAH        30.4194   -9.8670   14.8222 C.ar        1 MOL      -0.0582
     44 CAG        29.1088  -10.1066   14.3708 C.ar        1 MOL      -0.0685
     45 CAF        28.3793   -9.0782   13.7525 C.ar        1 MOL      -0.0687
     46 CAK        28.9579   -7.8069   13.6042 C.ar        1 MOL      -0.0685
     47 CAJ        30.2579   -7.5622   14.0819 C.ar        1 MOL      -0.0582
     48 H1         45.1802   -3.5107    7.0768 H           1 MOL       0.0233
     49 H2         44.8052   -4.9211    8.0727 H           1 MOL       0.0233
     50 H3         46.2627   -3.9593    8.4058 H           1 MOL       0.0233
     51 H4         44.8981   -2.0081    8.9921 H           1 MOL       0.0315
     52 H5         42.3844   -2.1839    9.2233 H           1 MOL       0.0233
     53 H6         42.4558   -3.7426    8.3671 H           1 MOL       0.0233
     54 H7         42.9915   -2.2551    7.5585 H           1 MOL       0.0233
     55 H8         44.5784   -2.5548   11.1563 H           1 MOL       0.0522
     56 H9         45.4023   -4.0296   10.7252 H           1 MOL       0.0522
     57 H10        43.0063   -3.7619   11.8863 H           1 MOL       0.1853
     58 H11        42.1225   -6.0395   12.4862 H           1 MOL       0.1125
     59 H12        40.5557   -7.7126   11.7744 H           1 MOL       0.0674
     60 H13        40.2757   -8.4209    9.3993 H           1 MOL       0.0258
     61 H14        41.1324   -6.9733    8.8548 H           1 MOL       0.0258
     62 H15        39.5861   -6.8241    9.7067 H           1 MOL       0.0258
     63 H16        42.9431   -7.9658   10.2947 H           1 MOL       0.2102
     64 H17        39.8675   -5.5588   12.2650 H           1 MOL       0.2037
     65 H18        40.0180   -4.9974   10.7179 H           1 MOL       0.2037
     66 H19        40.9071   -3.0533   11.2868 H           1 MOL       0.0839
     67 H20        41.4522   -3.6536   12.8444 H           1 MOL       0.0839
     68 H21        39.2716   -2.0329   12.3956 H           1 MOL       0.0632
     69 H22        40.6211   -2.4902   14.4857 H           1 MOL       0.0450
     70 H23        39.4964   -3.7762   14.8741 H           1 MOL       0.0450
     71 H24        40.0684   -1.8720   16.8083 H           1 MOL       0.0557
     72 H25        39.0058   -0.0922   18.0228 H           1 MOL       0.0599
     73 H26        37.0899    1.0581   17.0788 H           1 MOL       0.0559
     74 H27        36.2357    0.4041   14.9055 H           1 MOL       0.0599
     75 H28        37.2964   -1.3521   13.6556 H           1 MOL       0.0557
     76 H29        38.1742   -3.8544   11.3687 H           1 MOL       0.1852
     77 H30        35.5369   -6.1559   13.9743 H           1 MOL       0.0576
     78 H31        36.3392   -4.0569   10.4242 H           1 MOL       0.0566
     79 H32        32.4225   -4.9084    9.5441 H           1 MOL       0.0517
     80 H33        32.6927   -5.4973    7.9039 H           1 MOL       0.0517
     81 H34        33.0279   -3.8053    8.3148 H           1 MOL       0.0517
     82 H35        37.6450   -5.9463    6.9793 H           1 MOL       0.0487
     83 H36        36.6129   -7.1279    7.8210 H           1 MOL       0.0487
     84 H37        37.5331   -5.9276    8.7524 H           1 MOL       0.0487
     85 H38        33.4151   -7.0516   10.4677 H           1 MOL       0.0566
     86 H39        33.4756   -6.5979   14.6491 H           1 MOL       0.1875
     87 H40        32.2824   -7.6759   16.0643 H           1 MOL       0.0716
     88 H41        32.8730   -9.9845   16.4759 H           1 MOL       0.0274
     89 H42        34.3074   -9.1482   15.8779 H           1 MOL       0.0274
     90 H43        33.3917  -10.2088   14.7868 H           1 MOL       0.0274
     91 H44        30.9160  -10.6431   15.2592 H           1 MOL       0.0557
     92 H45        28.6868  -11.0322   14.4851 H           1 MOL       0.0599
     93 H46        27.4293   -9.2550   13.4134 H           1 MOL       0.0559
     94 H47        28.4299   -7.0607   13.1442 H           1 MOL       0.0599
     95 H48        30.6466   -6.6232   13.9692 H           1 MOL       0.0557
@<TRIPOS>BOND
     1     1     2   1
     2     2     3   1
     3     2     4   1
     4     4     5   1
     5     5     6  am
     6     6     7   2
     7     6     8   1
     8     8     9   1
     9     8    12   1
    10     9    10   1
    11     9    11   1
    12    12    13   1
    13    13    14   1
    14    14    15   1
    15    14    22   1
    16    15    16   1
    17    16    17  ar
    18    16    21  ar
    19    17    18  ar
    20    18    19  ar
    21    19    20  ar
    22    20    21  ar
    23    22    23  am
    24    23    24   2
    25    23    25   1
    26    25    26  ar
    27    25    27  ar
    28    26    36  ar
    29    27    28  ar
    30    28    29   1
    31    28    35  ar
    32    29    30   1
    33    29    31  am
    34    31    32   2
    35    31    33   2
    36    31    34   1
    37    35    36  ar
    38    36    37   1
    39    37    38   2
    40    37    39  am
    41    39    40   1
    42    40    41   1
    43    40    42   1
    44    42    43  ar
    45    42    47  ar
    46    43    44  ar
    47    44    45  ar
    48    45    46  ar
    49    46    47  ar
    50     1    48   1
    51     1    49   1
    52     1    50   1
    53     2    51   1
    54     3    52   1
    55     3    53   1
    56     3    54   1
    57     4    55   1
    58     4    56   1
    59     5    57   1
    60     8    58   1
    61     9    59   1
    62    10    60   1
    63    10    61   1
    64    10    62   1
    65    11    63   1
    66    12    64   1
    67    12    65   1
    68    13    66   1
    69    13    67   1
    70    14    68   1
    71    15    69   1
    72    15    70   1
    73    17    71   1
    74    18    72   1
    75    19    73   1
    76    20    74   1
    77    21    75   1
    78    22    76   1
    79    26    77   1
    80    27    78   1
    81    30    79   1
    82    30    80   1
    83    30    81   1
    84    34    82   1
    85    34    83   1
    86    34    84   1
    87    35    85   1
    88    39    86   1
    89    40    87   1
    90    41    88   1
    91    41    89   1
    92    41    90   1
    93    43    91   1
    94    44    92   1
    95    45    93   1
    96    46    94   1
    97    47    95   1
@<TRIPOS>SUBSTRUCTURE
     1  MOL      1

