@<TRIPOS>MOLECULE
4gid_ligand_010
    95    97
SMALL
GAST_HUCK
****
This file was generated by PARSER (from files_GN.cpp)

@<TRIPOS>ATOM
      1 CBK        50.7755   -3.7809   10.5287 C.3         1 MOL      -0.0608
      2 CBL        49.2413   -3.6858   10.7339 C.3         1 MOL      -0.0265
      3 CBM        48.9111   -2.9059   12.0418 C.3         1 MOL      -0.0608
      4 CBN        48.5545   -3.0728    9.4751 C.3         1 MOL       0.0334
      5 NBO        47.1692   -2.7900    9.6946 N.am        1 MOL      -0.2820
      6 CBP        46.1093   -3.2845    9.0681 C.2         1 MOL       0.2271
      7 OBV        46.2780   -4.0990    8.1636 O.2         1 MOL      -0.3908
      8 CBG        44.7557   -2.8576    9.4471 C.3         1 MOL       0.0928
      9 CBH        43.5960   -3.4659    8.5853 C.3         1 MOL       0.1121
     10 CBJ        43.5538   -5.0171    8.5554 C.3         1 MOL      -0.0314
     11 OBI        42.3203   -3.0440    9.0766 O.3         1 MOL      -0.3840
     12 NBF        44.6666   -1.3592    9.3836 N.4         1 MOL       0.2497
     13 CAX        45.0099   -0.5595   10.5917 C.3         1 MOL      -0.0062
     14 CAW        43.7702    0.0921   11.2877 C.3         1 MOL       0.0906
     15 CAY        44.0362    0.9113   12.6031 C.3         1 MOL       0.0089
     16 CAZ        45.4330    1.3719   12.8638 C.ar        1 MOL      -0.0406
     17 CBA        46.4634    0.4350   13.1268 C.ar        1 MOL      -0.0603
     18 CBB        47.7736    0.8574   13.4098 C.ar        1 MOL      -0.0686
     19 CBC        48.0784    2.2264   13.4368 C.ar        1 MOL      -0.0687
     20 CBD        47.0667    3.1734   13.2092 C.ar        1 MOL      -0.0686
     21 CBE        45.7526    2.7521   12.9267 C.ar        1 MOL      -0.0603
     22 NAV        42.6859   -0.8407   11.4884 N.am        1 MOL      -0.2761
     23 CAT        42.7219   -2.0486   12.0518 C.2         1 MOL       0.2026
     24 OAU        43.7801   -2.5349   12.4201 O.2         1 MOL      -0.3847
     25 CAP        41.5767   -2.8383   12.1021 C.ar        1 MOL       0.0397
     26 CAQ        40.3577   -2.3409   12.6194 C.ar        1 MOL      -0.0393
     27 CAO        41.6116   -4.1735   11.6274 C.ar        1 MOL      -0.0214
     28 CAN        40.4502   -4.9667   11.5910 C.ar        1 MOL       0.0754
     29 NAE        40.4578   -6.1983   10.9805 N.am        1 MOL      -0.1796
     30 CBT        40.5698   -6.3082    9.5557 C.3         1 MOL       0.0445
     31 SAB        40.0432   -7.5918   11.8425 S.o2        1 MOL       0.0593
     32 OAC        40.2260   -7.3335   13.4014 O.2         1 MOL      -0.1500
     33 OAD        38.5152   -7.9709   11.6077 O.2         1 MOL      -0.1500
     34 CAA        41.0879   -9.0148   11.4734 C.3         1 MOL       0.0790
     35 CAS        39.2578   -4.4511   12.1316 C.ar        1 MOL      -0.0214
     36 CAR        39.1899   -3.1474   12.6957 C.ar        1 MOL       0.0398
     37 CAL        38.0143   -2.7058   13.3144 C.2         1 MOL       0.2041
     38 OAM        36.9486   -3.2610   13.0654 O.2         1 MOL      -0.3845
     39 NBQ        38.0243   -1.7421   14.2302 N.am        1 MOL      -0.2723
     40 CBR        36.9242   -1.3264   15.0583 C.3         1 MOL       0.0723
     41 CBS        37.0516    0.1840   15.3713 C.3         1 MOL      -0.0320
     42 CAI        36.8441   -2.1317   16.3163 C.ar        1 MOL      -0.0183
     43 CAH        35.6198   -2.2347   17.0195 C.ar        1 MOL      -0.0582
     44 CAG        35.5271   -2.9878   18.2042 C.ar        1 MOL      -0.0685
     45 CAF        36.6579   -3.6598   18.7025 C.ar        1 MOL      -0.0687
     46 CAK        37.8843   -3.5624   18.0236 C.ar        1 MOL      -0.0685
     47 CAJ        37.9794   -2.7962   16.8476 C.ar        1 MOL      -0.0582
     48 H1         51.2452   -4.2858   11.3754 H           1 MOL       0.0233
     49 H2         51.2166   -2.7873   10.4307 H           1 MOL       0.0233
     50 H3         51.0081   -4.3535    9.6274 H           1 MOL       0.0233
     51 H4         48.8596   -4.7050   10.8538 H           1 MOL       0.0315
     52 H5         47.8556   -3.0171   12.2958 H           1 MOL       0.0233
     53 H6         49.1345   -1.8448   11.9241 H           1 MOL       0.0233
     54 H7         49.4942   -3.2940   12.8778 H           1 MOL       0.0233
     55 H8         48.6992   -3.7472    8.6237 H           1 MOL       0.0522
     56 H9         49.0339   -2.1285    9.2232 H           1 MOL       0.0522
     57 H10        46.9878   -2.1161   10.3647 H           1 MOL       0.1853
     58 H11        44.5787   -3.1968   10.4678 H           1 MOL       0.1125
     59 H12        43.6874   -3.0980    7.5562 H           1 MOL       0.0674
     60 H13        42.6485   -5.3499    8.0427 H           1 MOL       0.0258
     61 H14        43.5461   -5.4199    9.5670 H           1 MOL       0.0258
     62 H15        44.4075   -5.4323    8.0209 H           1 MOL       0.0258
     63 H16        42.1234   -2.1984    8.6288 H           1 MOL       0.2102
     64 H17        43.7187   -1.0919    9.1245 H           1 MOL       0.2037
     65 H18        45.2723   -1.0559    8.6206 H           1 MOL       0.2037
     66 H19        45.6788    0.2416   10.2670 H           1 MOL       0.0839
     67 H20        45.5516   -1.1527   11.3209 H           1 MOL       0.0839
     68 H21        43.3872    0.8199   10.5584 H           1 MOL       0.0632
     69 H22        43.7270    0.3314   13.4682 H           1 MOL       0.0450
     70 H23        43.3566    1.7730   12.5894 H           1 MOL       0.0450
     71 H24        46.2635   -0.5640   13.1034 H           1 MOL       0.0557
     72 H25        48.5026    0.1681   13.5997 H           1 MOL       0.0599
     73 H26        49.0360    2.5313   13.6280 H           1 MOL       0.0559
     74 H27        47.2761    4.1734   13.2644 H           1 MOL       0.0599
     75 H28        45.0317    3.4619   12.7669 H           1 MOL       0.0557
     76 H29        41.8325   -0.5688   11.1261 H           1 MOL       0.1852
     77 H30        40.3307   -1.3754   12.9606 H           1 MOL       0.0576
     78 H31        42.4874   -4.5584   11.2675 H           1 MOL       0.0566
     79 H32        40.7004   -5.3415    9.0650 H           1 MOL       0.0517
     80 H33        39.6682   -6.7677    9.1407 H           1 MOL       0.0517
     81 H34        41.4274   -6.9345    9.3023 H           1 MOL       0.0517
     82 H35        40.8174   -9.8459   12.1248 H           1 MOL       0.0487
     83 H36        42.1321   -8.7494   11.6376 H           1 MOL       0.0487
     84 H37        40.9482   -9.3141   10.4346 H           1 MOL       0.0487
     85 H38        38.4248   -5.0468   12.1174 H           1 MOL       0.0566
     86 H39        38.8825   -1.3437   14.4403 H           1 MOL       0.1875
     87 H40        35.9972   -1.4363   14.4826 H           1 MOL       0.0716
     88 H41        36.2112    0.5187   15.9828 H           1 MOL       0.0274
     89 H42        37.0414    0.7537   14.4395 H           1 MOL       0.0274
     90 H43        37.9806    0.3979   15.9045 H           1 MOL       0.0274
     91 H44        34.7850   -1.7506   16.6792 H           1 MOL       0.0557
     92 H45        34.6374   -3.0440   18.7066 H           1 MOL       0.0599
     93 H46        36.5885   -4.2139   19.5592 H           1 MOL       0.0559
     94 H47        38.7079   -4.0508   18.3857 H           1 MOL       0.0599
     95 H48        38.8840   -2.7372   16.3734 H           1 MOL       0.0557
@<TRIPOS>BOND
     1     1     2   1
     2     2     3   1
     3     2     4   1
     4     4     5   1
     5     5     6  am
     6     6     7   2
     7     6     8   1
     8     8     9   1
     9     8    12   1
    10     9    10   1
    11     9    11   1
    12    12    13   1
    13    13    14   1
    14    14    15   1
    15    14    22   1
    16    15    16   1
    17    16    17  ar
    18    16    21  ar
    19    17    18  ar
    20    18    19  ar
    21    19    20  ar
    22    20    21  ar
    23    22    23  am
    24    23    24   2
    25    23    25   1
    26    25    26  ar
    27    25    27  ar
    28    26    36  ar
    29    27    28  ar
    30    28    29   1
    31    28    35  ar
    32    29    30   1
    33    29    31  am
    34    31    32   2
    35    31    33   2
    36    31    34   1
    37    35    36  ar
    38    36    37   1
    39    37    38   2
    40    37    39  am
    41    39    40   1
    42    40    41   1
    43    40    42   1
    44    42    43  ar
    45    42    47  ar
    46    43    44  ar
    47    44    45  ar
    48    45    46  ar
    49    46    47  ar
    50     1    48   1
    51     1    49   1
    52     1    50   1
    53     2    51   1
    54     3    52   1
    55     3    53   1
    56     3    54   1
    57     4    55   1
    58     4    56   1
    59     5    57   1
    60     8    58   1
    61     9    59   1
    62    10    60   1
    63    10    61   1
    64    10    62   1
    65    11    63   1
    66    12    64   1
    67    12    65   1
    68    13    66   1
    69    13    67   1
    70    14    68   1
    71    15    69   1
    72    15    70   1
    73    17    71   1
    74    18    72   1
    75    19    73   1
    76    20    74   1
    77    21    75   1
    78    22    76   1
    79    26    77   1
    80    27    78   1
    81    30    79   1
    82    30    80   1
    83    30    81   1
    84    34    82   1
    85    34    83   1
    86    34    84   1
    87    35    85   1
    88    39    86   1
    89    40    87   1
    90    41    88   1
    91    41    89   1
    92    41    90   1
    93    43    91   1
    94    44    92   1
    95    45    93   1
    96    46    94   1
    97    47    95   1
@<TRIPOS>SUBSTRUCTURE
     1  MOL      1

