@<TRIPOS>MOLECULE
4gid_ligand_081
    95    97
SMALL
GAST_HUCK
****
This file was generated by PARSER (from files_GN.cpp)

@<TRIPOS>ATOM
      1 CBK        42.4785   -5.2899    8.6113 C.3         1 MOL      -0.0608
      2 CBL        43.2884   -4.1830    9.3312 C.3         1 MOL      -0.0265
      3 CBM        44.2797   -3.4814    8.3641 C.3         1 MOL      -0.0608
      4 CBN        42.3095   -3.1764   10.0269 C.3         1 MOL       0.0334
      5 NBO        42.9385   -2.0014   10.5456 N.am        1 MOL      -0.2820
      6 CBP        44.0423   -1.9512   11.2756 C.2         1 MOL       0.2271
      7 OBV        44.5261   -2.9930   11.7120 O.2         1 MOL      -0.3908
      8 CBG        44.6350   -0.6749   11.6869 C.3         1 MOL       0.0928
      9 CBH        44.2790    0.5541   10.7525 C.3         1 MOL       0.1121
     10 CBJ        43.0092    1.3193   11.2234 C.3         1 MOL      -0.0314
     11 OBI        45.3260    1.5282   10.6287 O.3         1 MOL      -0.3840
     12 NBF        46.1171   -0.8084   11.8346 N.4         1 MOL       0.2497
     13 CAX        46.7091   -0.1598   13.0386 C.3         1 MOL      -0.0062
     14 CAW        47.8809   -0.9768   13.6375 C.3         1 MOL       0.0906
     15 CAY        48.4730   -0.2950   14.9188 C.3         1 MOL       0.0089
     16 CAZ        47.5140   -0.2557   16.0572 C.ar        1 MOL      -0.0406
     17 CBA        47.2916   -1.4026   16.8551 C.ar        1 MOL      -0.0603
     18 CBB        46.3021   -1.4143   17.8587 C.ar        1 MOL      -0.0686
     19 CBC        45.5324   -0.2607   18.1017 C.ar        1 MOL      -0.0687
     20 CBD        45.7549    0.8966   17.3364 C.ar        1 MOL      -0.0686
     21 CBE        46.7402    0.9039   16.3270 C.ar        1 MOL      -0.0603
     22 NAV        48.8519   -1.1228   12.5967 N.am        1 MOL      -0.2761
     23 CAT        49.7955   -2.0422   12.5040 C.2         1 MOL       0.2026
     24 OAU        50.0265   -2.8266   13.4147 O.2         1 MOL      -0.3847
     25 CAP        50.5410   -2.0970   11.3389 C.ar        1 MOL       0.0397
     26 CAQ        51.8595   -1.5863   11.3040 C.ar        1 MOL      -0.0393
     27 CAO        49.9892   -2.6545   10.1642 C.ar        1 MOL      -0.0214
     28 CAN        50.7352   -2.7224    8.9749 C.ar        1 MOL       0.0754
     29 NAE        50.1779   -3.2352    7.8420 N.am        1 MOL      -0.1796
     30 CBT        49.7165   -2.3694    6.7962 C.3         1 MOL       0.0445
     31 SAB        49.9640   -4.9088    7.7089 S.o2        1 MOL       0.0593
     32 OAC        48.7932   -5.4381    8.6430 O.2         1 MOL      -0.1500
     33 OAD        49.5535   -5.2669    6.2150 O.2         1 MOL      -0.1500
     34 CAA        51.4825   -5.8321    7.9933 C.3         1 MOL       0.0790
     35 CAS        52.0516   -2.2143    8.9637 C.ar        1 MOL      -0.0214
     36 CAR        52.6286   -1.6345   10.1184 C.ar        1 MOL       0.0398
     37 CAL        53.9322   -1.1431   10.1242 C.2         1 MOL       0.2041
     38 OAM        54.8040   -1.8014    9.5699 O.2         1 MOL      -0.3845
     39 NBQ        54.2034    0.0066   10.7256 N.am        1 MOL      -0.2723
     40 CBR        55.4868    0.6109   10.9310 C.3         1 MOL       0.0723
     41 CBS        55.3223    1.8926   11.7859 C.3         1 MOL      -0.0320
     42 CAI        56.1976    0.9037    9.6535 C.ar        1 MOL      -0.0183
     43 CAH        57.3838    0.2050    9.3119 C.ar        1 MOL      -0.0582
     44 CAG        58.0204    0.4185    8.0800 C.ar        1 MOL      -0.0685
     45 CAF        57.4815    1.3365    7.1576 C.ar        1 MOL      -0.0687
     46 CAK        56.3161    2.0500    7.4846 C.ar        1 MOL      -0.0685
     47 CAJ        55.6818    1.8421    8.7240 C.ar        1 MOL      -0.0582
     48 H1         43.1553   -6.0388    8.1954 H           1 MOL       0.0233
     49 H2         41.8818   -4.8701    7.7996 H           1 MOL       0.0233
     50 H3         41.8098   -5.7930    9.3127 H           1 MOL       0.0233
     51 H4         43.8770   -4.6701   10.1135 H           1 MOL       0.0315
     52 H5         44.9532   -2.8266    8.9157 H           1 MOL       0.0233
     53 H6         43.7389   -2.8845    7.6285 H           1 MOL       0.0233
     54 H7         44.8921   -4.2287    7.8553 H           1 MOL       0.0233
     55 H8         41.7795   -3.6815   10.8456 H           1 MOL       0.0522
     56 H9         41.5590   -2.8365    9.3035 H           1 MOL       0.0522
     57 H10        42.5511   -1.1586   10.2767 H           1 MOL       0.1853
     58 H11        44.1998   -0.4854   12.6760 H           1 MOL       0.1125
     59 H12        44.0884    0.1974    9.7264 H           1 MOL       0.0674
     60 H13        42.7010    2.0193   10.4469 H           1 MOL       0.0258
     61 H14        43.2234    1.8766   12.1435 H           1 MOL       0.0258
     62 H15        42.1859    0.6279   11.4174 H           1 MOL       0.0258
     63 H16        45.8158    1.2637    9.8136 H           1 MOL       0.2102
     64 H17        46.5665   -0.4199   10.9998 H           1 MOL       0.2037
     65 H18        46.3787   -1.8000   11.8691 H           1 MOL       0.2037
     66 H19        45.9204   -0.0929   13.7925 H           1 MOL       0.0839
     67 H20        47.0391    0.8600   12.7996 H           1 MOL       0.0839
     68 H21        47.5019   -1.9688   13.8881 H           1 MOL       0.0632
     69 H22        48.8061    0.7080   14.6487 H           1 MOL       0.0450
     70 H23        49.3595   -0.8406   15.2499 H           1 MOL       0.0450
     71 H24        47.8245   -2.2612   16.6824 H           1 MOL       0.0557
     72 H25        46.1332   -2.2631   18.4007 H           1 MOL       0.0599
     73 H26        44.8004   -0.2787   18.8100 H           1 MOL       0.0559
     74 H27        45.1859    1.7360   17.5071 H           1 MOL       0.0599
     75 H28        46.8561    1.7485   15.7584 H           1 MOL       0.0557
     76 H29        48.7697   -0.5133   11.8420 H           1 MOL       0.1852
     77 H30        52.2464   -1.1755   12.1621 H           1 MOL       0.0576
     78 H31        49.0238   -3.0045   10.1669 H           1 MOL       0.0566
     79 H32        49.9213   -1.3136    6.9994 H           1 MOL       0.0517
     80 H33        48.6412   -2.4834    6.6871 H           1 MOL       0.0517
     81 H34        50.2025   -2.6364    5.8613 H           1 MOL       0.0517
     82 H35        51.3084   -6.8940    7.8286 H           1 MOL       0.0487
     83 H36        51.8107   -5.6753    9.0187 H           1 MOL       0.0487
     84 H37        52.2552   -5.4851    7.3096 H           1 MOL       0.0487
     85 H38        52.5848   -2.2345    8.0892 H           1 MOL       0.0566
     86 H39        53.4481    0.4866   11.0927 H           1 MOL       0.1875
     87 H40        56.0683   -0.0916   11.5387 H           1 MOL       0.0716
     88 H41        56.2977    2.3431   11.9767 H           1 MOL       0.0274
     89 H42        54.8653    1.6495   12.7487 H           1 MOL       0.0274
     90 H43        54.6883    2.6235   11.2804 H           1 MOL       0.0274
     91 H44        57.7860   -0.4801    9.9623 H           1 MOL       0.0557
     92 H45        58.8687   -0.1026    7.8443 H           1 MOL       0.0599
     93 H46        57.9309    1.4710    6.2581 H           1 MOL       0.0559
     94 H47        55.9127    2.7129    6.8181 H           1 MOL       0.0599
     95 H48        54.8226    2.3578    8.9314 H           1 MOL       0.0557
@<TRIPOS>BOND
     1     1     2   1
     2     2     3   1
     3     2     4   1
     4     4     5   1
     5     5     6  am
     6     6     7   2
     7     6     8   1
     8     8     9   1
     9     8    12   1
    10     9    10   1
    11     9    11   1
    12    12    13   1
    13    13    14   1
    14    14    15   1
    15    14    22   1
    16    15    16   1
    17    16    17  ar
    18    16    21  ar
    19    17    18  ar
    20    18    19  ar
    21    19    20  ar
    22    20    21  ar
    23    22    23  am
    24    23    24   2
    25    23    25   1
    26    25    26  ar
    27    25    27  ar
    28    26    36  ar
    29    27    28  ar
    30    28    29   1
    31    28    35  ar
    32    29    30   1
    33    29    31  am
    34    31    32   2
    35    31    33   2
    36    31    34   1
    37    35    36  ar
    38    36    37   1
    39    37    38   2
    40    37    39  am
    41    39    40   1
    42    40    41   1
    43    40    42   1
    44    42    43  ar
    45    42    47  ar
    46    43    44  ar
    47    44    45  ar
    48    45    46  ar
    49    46    47  ar
    50     1    48   1
    51     1    49   1
    52     1    50   1
    53     2    51   1
    54     3    52   1
    55     3    53   1
    56     3    54   1
    57     4    55   1
    58     4    56   1
    59     5    57   1
    60     8    58   1
    61     9    59   1
    62    10    60   1
    63    10    61   1
    64    10    62   1
    65    11    63   1
    66    12    64   1
    67    12    65   1
    68    13    66   1
    69    13    67   1
    70    14    68   1
    71    15    69   1
    72    15    70   1
    73    17    71   1
    74    18    72   1
    75    19    73   1
    76    20    74   1
    77    21    75   1
    78    22    76   1
    79    26    77   1
    80    27    78   1
    81    30    79   1
    82    30    80   1
    83    30    81   1
    84    34    82   1
    85    34    83   1
    86    34    84   1
    87    35    85   1
    88    39    86   1
    89    40    87   1
    90    41    88   1
    91    41    89   1
    92    41    90   1
    93    43    91   1
    94    44    92   1
    95    45    93   1
    96    46    94   1
    97    47    95   1
@<TRIPOS>SUBSTRUCTURE
     1  MOL      1

