@<TRIPOS>MOLECULE
4gid_ligand_011
    95    97
SMALL
GAST_HUCK
****
This file was generated by PARSER (from files_GN.cpp)

@<TRIPOS>ATOM
      1 CBK        47.1534    1.4672   14.3910 C.3         1 MOL      -0.0608
      2 CBL        47.0857    2.2650   13.0568 C.3         1 MOL      -0.0265
      3 CBM        48.3275    1.9722   12.1734 C.3         1 MOL      -0.0608
      4 CBN        45.7536    2.0380   12.2809 C.3         1 MOL       0.0334
      5 NBO        45.4039    0.6469   12.1853 N.am        1 MOL      -0.2820
      6 CBP        45.3884   -0.1170   11.1078 C.2         1 MOL       0.2271
      7 OBV        45.6756    0.3393   10.0084 O.2         1 MOL      -0.3908
      8 CBG        45.1070   -1.5510   11.2354 C.3         1 MOL       0.0928
      9 CBH        46.3918   -2.4339   11.1045 C.3         1 MOL       0.1121
     10 CBJ        47.0548   -2.4766    9.7013 C.3         1 MOL      -0.0314
     11 OBI        47.3659   -2.0175   12.0675 O.3         1 MOL      -0.3840
     12 NBF        44.0583   -1.9847   10.2641 N.4         1 MOL       0.2497
     13 CAX        42.6543   -2.1503   10.7351 C.3         1 MOL      -0.0062
     14 CAW        42.3979   -3.3048   11.7608 C.3         1 MOL       0.0906
     15 CAY        43.0577   -4.6761   11.3957 C.3         1 MOL       0.0089
     16 CAZ        42.3545   -5.5765   10.4307 C.ar        1 MOL      -0.0406
     17 CBA        42.0648   -6.9224   10.7887 C.ar        1 MOL      -0.0603
     18 CBB        41.4710   -7.8060    9.8664 C.ar        1 MOL      -0.0686
     19 CBC        41.1256   -7.3543    8.5791 C.ar        1 MOL      -0.0687
     20 CBD        41.3973   -6.0255    8.2069 C.ar        1 MOL      -0.0686
     21 CBE        42.0161   -5.1505    9.1201 C.ar        1 MOL      -0.0603
     22 NAV        40.9933   -3.5039   12.0189 N.am        1 MOL      -0.2761
     23 CAT        40.1560   -2.6875   12.6570 C.2         1 MOL       0.2026
     24 OAU        40.5657   -1.5893   13.0238 O.2         1 MOL      -0.3847
     25 CAP        38.8712   -3.1109   13.0358 C.ar        1 MOL       0.0397
     26 CAQ        38.1836   -4.1570   12.3603 C.ar        1 MOL      -0.0393
     27 CAO        38.2298   -2.5370   14.1644 C.ar        1 MOL      -0.0214
     28 CAN        37.0160   -3.0384   14.6674 C.ar        1 MOL       0.0754
     29 NAE        36.4490   -2.4913   15.7848 N.am        1 MOL      -0.1796
     30 CBT        35.1994   -1.7872   15.7159 C.3         1 MOL       0.0445
     31 SAB        37.0932   -2.8688   17.3038 S.o2        1 MOL       0.0593
     32 OAC        36.7113   -1.7241   18.3408 O.2         1 MOL      -0.1500
     33 OAD        36.4457   -4.2164   17.8417 O.2         1 MOL      -0.1500
     34 CAA        38.8911   -2.9939   17.3971 C.3         1 MOL       0.0790
     35 CAS        36.3908   -4.1098   13.9989 C.ar        1 MOL      -0.0214
     36 CAR        36.9433   -4.6713   12.8203 C.ar        1 MOL       0.0398
     37 CAL        36.2796   -5.7050   12.1574 C.2         1 MOL       0.2041
     38 OAM        35.7332   -6.5804   12.8292 O.2         1 MOL      -0.3845
     39 NBQ        36.2096   -5.7548   10.8282 N.am        1 MOL      -0.2723
     40 CBR        35.5047   -6.7182   10.0249 C.3         1 MOL       0.0723
     41 CBS        36.5183   -7.7013    9.3819 C.3         1 MOL      -0.0320
     42 CAI        34.6454   -5.9901    9.0399 C.ar        1 MOL      -0.0183
     43 CAH        33.2780   -5.7549    9.3324 C.ar        1 MOL      -0.0582
     44 CAG        32.4475   -5.0749    8.4262 C.ar        1 MOL      -0.0685
     45 CAF        32.9628   -4.6253    7.1963 C.ar        1 MOL      -0.0687
     46 CAK        34.3190   -4.8333    6.8929 C.ar        1 MOL      -0.0685
     47 CAJ        35.1567   -5.4905    7.8135 C.ar        1 MOL      -0.0582
     48 H1         48.0124    1.7925   14.9806 H           1 MOL       0.0233
     49 H2         47.2512    0.3961   14.1994 H           1 MOL       0.0233
     50 H3         46.2505    1.6301   14.9810 H           1 MOL       0.0233
     51 H4         47.1221    3.3281   13.3147 H           1 MOL       0.0315
     52 H5         48.3086    2.5898   11.2725 H           1 MOL       0.0233
     53 H6         48.3533    0.9219   11.8749 H           1 MOL       0.0233
     54 H7         49.2435    2.2012   12.7213 H           1 MOL       0.0233
     55 H8         45.8139    2.5104   11.2961 H           1 MOL       0.0522
     56 H9         44.9402    2.5334   12.8156 H           1 MOL       0.0522
     57 H10        45.1924    0.2154   13.0296 H           1 MOL       0.1853
     58 H11        44.7402   -1.7342   12.2503 H           1 MOL       0.1125
     59 H12        46.1112   -3.4625   11.3633 H           1 MOL       0.0674
     60 H13        47.8702   -3.2042    9.7008 H           1 MOL       0.0258
     61 H14        47.4675   -1.5016    9.4360 H           1 MOL       0.0258
     62 H15        46.3304   -2.7746    8.9422 H           1 MOL       0.0258
     63 H16        48.0586   -2.7159   12.0527 H           1 MOL       0.2102
     64 H17        44.3494   -2.8711    9.8453 H           1 MOL       0.2037
     65 H18        44.0300   -1.2919    9.5127 H           1 MOL       0.2037
     66 H19        42.0392   -2.3376    9.8518 H           1 MOL       0.0839
     67 H20        42.3303   -1.1977   11.1744 H           1 MOL       0.0839
     68 H21        42.8518   -2.9926   12.7082 H           1 MOL       0.0632
     69 H22        43.1954   -5.2110   12.3340 H           1 MOL       0.0450
     70 H23        44.0607   -4.5202   11.0122 H           1 MOL       0.0450
     71 H24        42.3010   -7.2736   11.7222 H           1 MOL       0.0557
     72 H25        41.2971   -8.7790   10.1332 H           1 MOL       0.0599
     73 H26        40.6791   -7.9960    7.9246 H           1 MOL       0.0559
     74 H27        41.1638   -5.7036    7.2685 H           1 MOL       0.0599
     75 H28        42.2210   -4.1914    8.8219 H           1 MOL       0.0557
     76 H29        40.6431   -4.3751   11.7861 H           1 MOL       0.1852
     77 H30        38.6028   -4.5677   11.5244 H           1 MOL       0.0576
     78 H31        38.6686   -1.7549   14.6603 H           1 MOL       0.0566
     79 H32        34.8356   -1.6757   14.6896 H           1 MOL       0.0517
     80 H33        35.3231   -0.7872   16.1355 H           1 MOL       0.0517
     81 H34        34.4363   -2.3194   16.2898 H           1 MOL       0.0517
     82 H35        39.1884   -3.2223   18.4208 H           1 MOL       0.0487
     83 H36        39.3416   -2.0478   17.0960 H           1 MOL       0.0487
     84 H37        39.2377   -3.7898   16.7369 H           1 MOL       0.0487
     85 H38        35.5064   -4.4686   14.3703 H           1 MOL       0.0566
     86 H39        36.6654   -5.0473   10.3421 H           1 MOL       0.1875
     87 H40        34.8580   -7.3463   10.6485 H           1 MOL       0.0716
     88 H41        36.0141   -8.3534    8.6644 H           1 MOL       0.0274
     89 H42        36.9717   -8.3245   10.1565 H           1 MOL       0.0274
     90 H43        37.3183   -7.1653    8.8665 H           1 MOL       0.0274
     91 H44        32.8781   -6.0743   10.2197 H           1 MOL       0.0557
     92 H45        31.4627   -4.9172    8.6526 H           1 MOL       0.0599
     93 H46        32.3540   -4.1434    6.5341 H           1 MOL       0.0559
     94 H47        34.6968   -4.5050    6.0006 H           1 MOL       0.0599
     95 H48        36.1440   -5.6135    7.5750 H           1 MOL       0.0557
@<TRIPOS>BOND
     1     1     2   1
     2     2     3   1
     3     2     4   1
     4     4     5   1
     5     5     6  am
     6     6     7   2
     7     6     8   1
     8     8     9   1
     9     8    12   1
    10     9    10   1
    11     9    11   1
    12    12    13   1
    13    13    14   1
    14    14    15   1
    15    14    22   1
    16    15    16   1
    17    16    17  ar
    18    16    21  ar
    19    17    18  ar
    20    18    19  ar
    21    19    20  ar
    22    20    21  ar
    23    22    23  am
    24    23    24   2
    25    23    25   1
    26    25    26  ar
    27    25    27  ar
    28    26    36  ar
    29    27    28  ar
    30    28    29   1
    31    28    35  ar
    32    29    30   1
    33    29    31  am
    34    31    32   2
    35    31    33   2
    36    31    34   1
    37    35    36  ar
    38    36    37   1
    39    37    38   2
    40    37    39  am
    41    39    40   1
    42    40    41   1
    43    40    42   1
    44    42    43  ar
    45    42    47  ar
    46    43    44  ar
    47    44    45  ar
    48    45    46  ar
    49    46    47  ar
    50     1    48   1
    51     1    49   1
    52     1    50   1
    53     2    51   1
    54     3    52   1
    55     3    53   1
    56     3    54   1
    57     4    55   1
    58     4    56   1
    59     5    57   1
    60     8    58   1
    61     9    59   1
    62    10    60   1
    63    10    61   1
    64    10    62   1
    65    11    63   1
    66    12    64   1
    67    12    65   1
    68    13    66   1
    69    13    67   1
    70    14    68   1
    71    15    69   1
    72    15    70   1
    73    17    71   1
    74    18    72   1
    75    19    73   1
    76    20    74   1
    77    21    75   1
    78    22    76   1
    79    26    77   1
    80    27    78   1
    81    30    79   1
    82    30    80   1
    83    30    81   1
    84    34    82   1
    85    34    83   1
    86    34    84   1
    87    35    85   1
    88    39    86   1
    89    40    87   1
    90    41    88   1
    91    41    89   1
    92    41    90   1
    93    43    91   1
    94    44    92   1
    95    45    93   1
    96    46    94   1
    97    47    95   1
@<TRIPOS>SUBSTRUCTURE
     1  MOL      1

