@<TRIPOS>MOLECULE
4gid_ligand_083
    95    97
SMALL
GAST_HUCK
****
This file was generated by PARSER (from files_GN.cpp)

@<TRIPOS>ATOM
      1 CBK        44.4636    1.3808   11.4764 C.3         1 MOL      -0.0608
      2 CBL        45.7896    1.0556   12.2223 C.3         1 MOL      -0.0265
      3 CBM        47.0127    1.2810   11.2874 C.3         1 MOL      -0.0608
      4 CBN        45.8991    1.8799   13.5430 C.3         1 MOL       0.0334
      5 NBO        46.8582    1.3330   14.4611 N.am        1 MOL      -0.2820
      6 CBP        46.6846    1.0933   15.7604 C.2         1 MOL       0.2271
      7 OBV        45.5907    1.2714   16.2887 O.2         1 MOL      -0.3908
      8 CBG        47.7729    0.5258   16.5600 C.3         1 MOL       0.0928
      9 CBH        49.1849    1.0665   16.1163 C.3         1 MOL       0.1121
     10 CBJ        50.2244    1.2302   17.2576 C.3         1 MOL      -0.0314
     11 OBI        49.7358    0.2360   15.0936 O.3         1 MOL      -0.3840
     12 NBF        47.5668   -0.9464   16.4451 N.4         1 MOL       0.2497
     13 CAX        48.5847   -1.8892   16.9711 C.3         1 MOL      -0.0062
     14 CAW        48.4155   -3.3034   16.3199 C.3         1 MOL       0.0906
     15 CAY        49.3839   -4.4090   16.8815 C.3         1 MOL       0.0089
     16 CAZ        48.8986   -5.5429   17.7343 C.ar        1 MOL      -0.0406
     17 CBA        49.7927   -6.6282   17.9462 C.ar        1 MOL      -0.0603
     18 CBB        49.4025   -7.7684   18.6689 C.ar        1 MOL      -0.0686
     19 CBC        48.1094   -7.8463   19.2139 C.ar        1 MOL      -0.0687
     20 CBD        47.2193   -6.7680   19.0496 C.ar        1 MOL      -0.0686
     21 CBE        47.6096   -5.6283   18.3183 C.ar        1 MOL      -0.0603
     22 NAV        48.5051   -3.2056   14.8779 N.am        1 MOL      -0.2761
     23 CAT        49.5931   -3.0604   14.1263 C.2         1 MOL       0.2026
     24 OAU        50.6787   -3.0945   14.7001 O.2         1 MOL      -0.3847
     25 CAP        49.5490   -2.8631   12.7304 C.ar        1 MOL       0.0397
     26 CAQ        48.3750   -3.0883   11.9615 C.ar        1 MOL      -0.0393
     27 CAO        50.7013   -2.4108   12.0351 C.ar        1 MOL      -0.0214
     28 CAN        50.7071   -2.1751   10.6445 C.ar        1 MOL       0.0754
     29 NAE        51.8341   -1.6875   10.0154 N.am        1 MOL      -0.1796
     30 CBT        52.2547   -2.1682    8.7245 C.3         1 MOL       0.0445
     31 SAB        52.5766   -0.2690   10.5723 S.o2        1 MOL       0.0593
     32 OAC        52.2960    0.9329    9.5698 O.2         1 MOL      -0.1500
     33 OAD        51.9306    0.2246   11.9431 O.2         1 MOL      -0.1500
     34 CAA        54.3500   -0.4504   10.8507 C.3         1 MOL       0.0790
     35 CAS        49.5246   -2.4410    9.9240 C.ar        1 MOL      -0.0214
     36 CAR        48.3494   -2.9112   10.5578 C.ar        1 MOL       0.0398
     37 CAL        47.2247   -3.2340    9.7975 C.2         1 MOL       0.2041
     38 OAM        47.3843   -3.9140    8.7888 O.2         1 MOL      -0.3845
     39 NBQ        46.0069   -2.8032   10.1222 N.am        1 MOL      -0.2723
     40 CBR        44.7740   -3.0691    9.4196 C.3         1 MOL       0.0723
     41 CBS        44.1466   -1.7336    8.9398 C.3         1 MOL      -0.0320
     42 CAI        43.8245   -3.8370   10.2845 C.ar        1 MOL      -0.0183
     43 CAH        43.3734   -5.1288    9.9126 C.ar        1 MOL      -0.0582
     44 CAG        42.4698   -5.8428   10.7219 C.ar        1 MOL      -0.0685
     45 CAF        41.9839   -5.2703   11.9102 C.ar        1 MOL      -0.0687
     46 CAK        42.4056   -3.9830   12.2871 C.ar        1 MOL      -0.0685
     47 CAJ        43.3234   -3.2801   11.4881 C.ar        1 MOL      -0.0582
     48 H1         44.4382    0.8957   10.4965 H           1 MOL       0.0233
     49 H2         44.3521    2.4582   11.3296 H           1 MOL       0.0233
     50 H3         43.6093    1.0181   12.0540 H           1 MOL       0.0233
     51 H4         45.7641   -0.0082   12.4831 H           1 MOL       0.0315
     52 H5         47.9474    1.0714   11.8115 H           1 MOL       0.0233
     53 H6         47.0383    2.3132   10.9267 H           1 MOL       0.0233
     54 H7         46.9554    0.6122   10.4239 H           1 MOL       0.0233
     55 H8         44.9112    1.9367   14.0113 H           1 MOL       0.0522
     56 H9         46.2120    2.8980   13.3024 H           1 MOL       0.0522
     57 H10        47.7549    1.1952   14.1131 H           1 MOL       0.1853
     58 H11        47.6101    0.7955   17.6084 H           1 MOL       0.1125
     59 H12        49.0731    2.0675   15.6836 H           1 MOL       0.0674
     60 H13        51.1881    1.5425   16.8377 H           1 MOL       0.0258
     61 H14        50.3770    0.2996   17.8096 H           1 MOL       0.0258
     62 H15        49.8900    2.0045   17.9564 H           1 MOL       0.0258
     63 H16        50.4767    0.7627   14.7044 H           1 MOL       0.2102
     64 H17        47.4309   -1.1473   15.4530 H           1 MOL       0.2037
     65 H18        46.6912   -1.1726   16.9266 H           1 MOL       0.2037
     66 H19        48.4698   -1.9614   18.0589 H           1 MOL       0.0839
     67 H20        49.5811   -1.5013   16.7483 H           1 MOL       0.0839
     68 H21        47.3880   -3.6097   16.5097 H           1 MOL       0.0632
     69 H22        50.2015   -3.9235   17.4236 H           1 MOL       0.0450
     70 H23        49.8423   -4.8943   16.0141 H           1 MOL       0.0450
     71 H24        50.7407   -6.6039   17.5539 H           1 MOL       0.0557
     72 H25        50.0531   -8.5480   18.7914 H           1 MOL       0.0599
     73 H26        47.8148   -8.6792   19.7270 H           1 MOL       0.0559
     74 H27        46.2837   -6.8153   19.4573 H           1 MOL       0.0599
     75 H28        46.9376   -4.8658   18.2266 H           1 MOL       0.0557
     76 H29        47.6552   -3.2216   14.4204 H           1 MOL       0.1852
     77 H30        47.5253   -3.4287   12.4219 H           1 MOL       0.0576
     78 H31        51.5686   -2.2475   12.5503 H           1 MOL       0.0566
     79 H32        51.7972   -3.1252    8.4656 H           1 MOL       0.0517
     80 H33        53.3362   -2.3127    8.7034 H           1 MOL       0.0517
     81 H34        51.9899   -1.4453    7.9519 H           1 MOL       0.0517
     82 H35        54.7469    0.4527   11.3156 H           1 MOL       0.0487
     83 H36        54.8548   -0.6143    9.8984 H           1 MOL       0.0487
     84 H37        54.5306   -1.3040   11.5049 H           1 MOL       0.0487
     85 H38        49.5089   -2.2601    8.9180 H           1 MOL       0.0566
     86 H39        45.9523   -2.1822   10.8674 H           1 MOL       0.1875
     87 H40        44.9770   -3.6452    8.5108 H           1 MOL       0.0716
     88 H41        43.3218   -1.9326    8.2495 H           1 MOL       0.0274
     89 H42        44.8901   -1.1268    8.4200 H           1 MOL       0.0274
     90 H43        43.7678   -1.1465    9.7784 H           1 MOL       0.0274
     91 H44        43.6996   -5.5624    9.0451 H           1 MOL       0.0557
     92 H45        42.1575   -6.7762   10.4424 H           1 MOL       0.0599
     93 H46        41.3290   -5.7877   12.4994 H           1 MOL       0.0559
     94 H47        42.0461   -3.5599   13.1459 H           1 MOL       0.0599
     95 H48        43.6216   -2.3497   11.7918 H           1 MOL       0.0557
@<TRIPOS>BOND
     1     1     2   1
     2     2     3   1
     3     2     4   1
     4     4     5   1
     5     5     6  am
     6     6     7   2
     7     6     8   1
     8     8     9   1
     9     8    12   1
    10     9    10   1
    11     9    11   1
    12    12    13   1
    13    13    14   1
    14    14    15   1
    15    14    22   1
    16    15    16   1
    17    16    17  ar
    18    16    21  ar
    19    17    18  ar
    20    18    19  ar
    21    19    20  ar
    22    20    21  ar
    23    22    23  am
    24    23    24   2
    25    23    25   1
    26    25    26  ar
    27    25    27  ar
    28    26    36  ar
    29    27    28  ar
    30    28    29   1
    31    28    35  ar
    32    29    30   1
    33    29    31  am
    34    31    32   2
    35    31    33   2
    36    31    34   1
    37    35    36  ar
    38    36    37   1
    39    37    38   2
    40    37    39  am
    41    39    40   1
    42    40    41   1
    43    40    42   1
    44    42    43  ar
    45    42    47  ar
    46    43    44  ar
    47    44    45  ar
    48    45    46  ar
    49    46    47  ar
    50     1    48   1
    51     1    49   1
    52     1    50   1
    53     2    51   1
    54     3    52   1
    55     3    53   1
    56     3    54   1
    57     4    55   1
    58     4    56   1
    59     5    57   1
    60     8    58   1
    61     9    59   1
    62    10    60   1
    63    10    61   1
    64    10    62   1
    65    11    63   1
    66    12    64   1
    67    12    65   1
    68    13    66   1
    69    13    67   1
    70    14    68   1
    71    15    69   1
    72    15    70   1
    73    17    71   1
    74    18    72   1
    75    19    73   1
    76    20    74   1
    77    21    75   1
    78    22    76   1
    79    26    77   1
    80    27    78   1
    81    30    79   1
    82    30    80   1
    83    30    81   1
    84    34    82   1
    85    34    83   1
    86    34    84   1
    87    35    85   1
    88    39    86   1
    89    40    87   1
    90    41    88   1
    91    41    89   1
    92    41    90   1
    93    43    91   1
    94    44    92   1
    95    45    93   1
    96    46    94   1
    97    47    95   1
@<TRIPOS>SUBSTRUCTURE
     1  MOL      1

