@<TRIPOS>MOLECULE
4gid_ligand_063
    95    97
SMALL
GAST_HUCK
****
This file was generated by PARSER (from files_GN.cpp)

@<TRIPOS>ATOM
      1 CBK        33.0277   -2.7975    6.5144 C.3         1 MOL      -0.0608
      2 CBL        31.9779   -3.0143    7.6432 C.3         1 MOL      -0.0265
      3 CBM        30.9670   -4.1163    7.2362 C.3         1 MOL      -0.0608
      4 CBN        32.6363   -3.2521    9.0413 C.3         1 MOL       0.0334
      5 NBO        33.9017   -3.9263    9.0326 N.am        1 MOL      -0.2820
      6 CBP        34.1374   -5.2320    9.1114 C.2         1 MOL       0.2271
      7 OBV        33.2145   -5.9866    9.3910 O.2         1 MOL      -0.3908
      8 CBG        35.5129   -5.7430    9.0129 C.3         1 MOL       0.0928
      9 CBH        36.3348   -5.1270    7.8267 C.3         1 MOL       0.1121
     10 CBJ        35.8519   -5.5365    6.4074 C.3         1 MOL      -0.0314
     11 OBI        36.3350   -3.6995    7.9427 O.3         1 MOL      -0.3840
     12 NBF        35.5465   -7.2414    8.9440 N.4         1 MOL       0.2497
     13 CAX        36.6049   -8.1055    9.5317 C.3         1 MOL      -0.0062
     14 CAW        37.7180   -7.5194   10.4510 C.3         1 MOL       0.0906
     15 CAY        38.7574   -8.6151   10.8882 C.3         1 MOL       0.0089
     16 CAZ        40.1584   -8.2836   10.5083 C.ar        1 MOL      -0.0406
     17 CBA        41.2398   -8.4698   11.4022 C.ar        1 MOL      -0.0603
     18 CBB        42.5480   -8.1126   11.0222 C.ar        1 MOL      -0.0686
     19 CBC        42.7877   -7.5566    9.7527 C.ar        1 MOL      -0.0687
     20 CBD        41.7257   -7.3835    8.8510 C.ar        1 MOL      -0.0686
     21 CBE        40.4243   -7.7612    9.2199 C.ar        1 MOL      -0.0603
     22 NAV        37.3414   -6.7418   11.6020 N.am        1 MOL      -0.2761
     23 CAT        36.1427   -6.4527   12.1029 C.2         1 MOL       0.2026
     24 OAU        35.1495   -6.9706   11.6053 O.2         1 MOL      -0.3847
     25 CAP        35.9963   -5.5768   13.1895 C.ar        1 MOL       0.0397
     26 CAQ        36.7856   -4.4084   13.3391 C.ar        1 MOL      -0.0393
     27 CAO        35.0299   -5.8358   14.1912 C.ar        1 MOL      -0.0214
     28 CAN        34.8561   -4.9865   15.3025 C.ar        1 MOL       0.0754
     29 NAE        33.8238   -5.2045   16.1701 N.am        1 MOL      -0.1796
     30 CBT        34.0200   -5.2939   17.5904 C.3         1 MOL       0.0445
     31 SAB        32.2367   -5.1579   15.5799 S.o2        1 MOL       0.0593
     32 OAC        31.5418   -3.8413   16.1275 O.2         1 MOL      -0.1500
     33 OAD        32.2565   -4.9201   14.0059 O.2         1 MOL      -0.1500
     34 CAA        31.2240   -6.6170   15.8982 C.3         1 MOL       0.0790
     35 CAS        35.7032   -3.8669   15.4524 C.ar        1 MOL      -0.0214
     36 CAR        36.6668   -3.5604   14.4662 C.ar        1 MOL       0.0398
     37 CAL        37.4630   -2.4348   14.5840 C.2         1 MOL       0.2041
     38 OAM        37.4644   -1.6218   13.6654 O.2         1 MOL      -0.3845
     39 NBQ        38.2383   -2.2945   15.6493 N.am        1 MOL      -0.2723
     40 CBR        39.1376   -1.2135   15.9536 C.3         1 MOL       0.0723
     41 CBS        40.2043   -0.9380   14.8542 C.3         1 MOL      -0.0320
     42 CAI        39.8152   -1.5043   17.2557 C.ar        1 MOL      -0.0183
     43 CAH        39.8385   -0.5474   18.3004 C.ar        1 MOL      -0.0582
     44 CAG        40.5142   -0.8103   19.5065 C.ar        1 MOL      -0.0685
     45 CAF        41.1691   -2.0407   19.6943 C.ar        1 MOL      -0.0687
     46 CAK        41.1483   -3.0079   18.6747 C.ar        1 MOL      -0.0685
     47 CAJ        40.4805   -2.7398   17.4664 C.ar        1 MOL      -0.0582
     48 H1         32.5395   -2.3883    5.6246 H           1 MOL       0.0233
     49 H2         33.5209   -3.7351    6.2448 H           1 MOL       0.0233
     50 H3         33.7987   -2.0912    6.8340 H           1 MOL       0.0233
     51 H4         31.4000   -2.0883    7.7354 H           1 MOL       0.0315
     52 H5         30.3115   -4.3551    8.0706 H           1 MOL       0.0233
     53 H6         31.4854   -5.0230    6.9235 H           1 MOL       0.0233
     54 H7         30.3521   -3.7653    6.4077 H           1 MOL       0.0233
     55 H8         31.9482   -3.7681    9.7157 H           1 MOL       0.0522
     56 H9         32.8201   -2.2691    9.4806 H           1 MOL       0.0522
     57 H10        34.6789   -3.3505    8.9691 H           1 MOL       0.1853
     58 H11        36.0004   -5.4017    9.9220 H           1 MOL       0.1125
     59 H12        37.3782   -5.4485    7.9206 H           1 MOL       0.0674
     60 H13        36.3684   -4.9444    5.6464 H           1 MOL       0.0258
     61 H14        34.7751   -5.3839    6.3012 H           1 MOL       0.0258
     62 H15        36.0852   -6.5888    6.2181 H           1 MOL       0.0258
     63 H16        36.4572   -3.3590    7.0365 H           1 MOL       0.2102
     64 H17        35.5231   -7.4825    7.9495 H           1 MOL       0.2037
     65 H18        34.6703   -7.5799    9.3340 H           1 MOL       0.2037
     66 H19        37.1052   -8.5626    8.6678 H           1 MOL       0.0839
     67 H20        36.1069   -8.9231   10.0495 H           1 MOL       0.0839
     68 H21        38.2153   -6.7934    9.8065 H           1 MOL       0.0632
     69 H22        38.5275   -9.5801   10.4326 H           1 MOL       0.0450
     70 H23        38.6805   -8.7786   11.9679 H           1 MOL       0.0450
     71 H24        41.0804   -8.8533   12.3363 H           1 MOL       0.0557
     72 H25        43.3250   -8.2458   11.6702 H           1 MOL       0.0599
     73 H26        43.7341   -7.2817    9.4811 H           1 MOL       0.0559
     74 H27        41.9006   -6.9830    7.9305 H           1 MOL       0.0599
     75 H28        39.6662   -7.6338    8.5458 H           1 MOL       0.0557
     76 H29        38.0974   -6.3714   12.0876 H           1 MOL       0.1852
     77 H30        37.4680   -4.1648   12.6147 H           1 MOL       0.0576
     78 H31        34.4347   -6.6647   14.1219 H           1 MOL       0.0566
     79 H32        35.0791   -5.3094   17.8619 H           1 MOL       0.0517
     80 H33        33.5669   -6.2136   17.9708 H           1 MOL       0.0517
     81 H34        33.5528   -4.4394   18.0888 H           1 MOL       0.0517
     82 H35        30.2321   -6.4753   15.4673 H           1 MOL       0.0487
     83 H36        31.1317   -6.7690   16.9730 H           1 MOL       0.0487
     84 H37        31.6937   -7.4901   15.4465 H           1 MOL       0.0487
     85 H38        35.5739   -3.2368   16.2509 H           1 MOL       0.0566
     86 H39        38.1895   -3.0105   16.3048 H           1 MOL       0.1875
     87 H40        38.5270   -0.3082   16.0451 H           1 MOL       0.0716
     88 H41        40.9291   -0.2011   15.2072 H           1 MOL       0.0274
     89 H42        39.7373   -0.5327   13.9568 H           1 MOL       0.0274
     90 H43        40.7338   -1.8532   14.5855 H           1 MOL       0.0274
     91 H44        39.3712    0.3536   18.1858 H           1 MOL       0.0557
     92 H45        40.5304   -0.1047   20.2466 H           1 MOL       0.0599
     93 H46        41.6595   -2.2305   20.5702 H           1 MOL       0.0559
     94 H47        41.6220   -3.9036   18.8108 H           1 MOL       0.0599
     95 H48        40.4876   -3.4543   16.7340 H           1 MOL       0.0557
@<TRIPOS>BOND
     1     1     2   1
     2     2     3   1
     3     2     4   1
     4     4     5   1
     5     5     6  am
     6     6     7   2
     7     6     8   1
     8     8     9   1
     9     8    12   1
    10     9    10   1
    11     9    11   1
    12    12    13   1
    13    13    14   1
    14    14    15   1
    15    14    22   1
    16    15    16   1
    17    16    17  ar
    18    16    21  ar
    19    17    18  ar
    20    18    19  ar
    21    19    20  ar
    22    20    21  ar
    23    22    23  am
    24    23    24   2
    25    23    25   1
    26    25    26  ar
    27    25    27  ar
    28    26    36  ar
    29    27    28  ar
    30    28    29   1
    31    28    35  ar
    32    29    30   1
    33    29    31  am
    34    31    32   2
    35    31    33   2
    36    31    34   1
    37    35    36  ar
    38    36    37   1
    39    37    38   2
    40    37    39  am
    41    39    40   1
    42    40    41   1
    43    40    42   1
    44    42    43  ar
    45    42    47  ar
    46    43    44  ar
    47    44    45  ar
    48    45    46  ar
    49    46    47  ar
    50     1    48   1
    51     1    49   1
    52     1    50   1
    53     2    51   1
    54     3    52   1
    55     3    53   1
    56     3    54   1
    57     4    55   1
    58     4    56   1
    59     5    57   1
    60     8    58   1
    61     9    59   1
    62    10    60   1
    63    10    61   1
    64    10    62   1
    65    11    63   1
    66    12    64   1
    67    12    65   1
    68    13    66   1
    69    13    67   1
    70    14    68   1
    71    15    69   1
    72    15    70   1
    73    17    71   1
    74    18    72   1
    75    19    73   1
    76    20    74   1
    77    21    75   1
    78    22    76   1
    79    26    77   1
    80    27    78   1
    81    30    79   1
    82    30    80   1
    83    30    81   1
    84    34    82   1
    85    34    83   1
    86    34    84   1
    87    35    85   1
    88    39    86   1
    89    40    87   1
    90    41    88   1
    91    41    89   1
    92    41    90   1
    93    43    91   1
    94    44    92   1
    95    45    93   1
    96    46    94   1
    97    47    95   1
@<TRIPOS>SUBSTRUCTURE
     1  MOL      1

