@<TRIPOS>MOLECULE
4gid_ligand_023
    95    97
SMALL
GAST_HUCK
****
This file was generated by PARSER (from files_GN.cpp)

@<TRIPOS>ATOM
      1 CBK        42.1714   -3.3674    9.8283 C.3         1 MOL      -0.0608
      2 CBL        42.8587   -4.2650    8.7665 C.3         1 MOL      -0.0265
      3 CBM        44.3537   -3.8710    8.6004 C.3         1 MOL      -0.0608
      4 CBN        42.6523   -5.8075    8.9639 C.3         1 MOL       0.0334
      5 NBO        41.7674   -6.1913   10.0349 N.am        1 MOL      -0.2820
      6 CBP        40.4716   -6.4697    9.9271 C.2         1 MOL       0.2271
      7 OBV        39.8989   -6.2967    8.8543 O.2         1 MOL      -0.3908
      8 CBG        39.6695   -6.8078   11.1074 C.3         1 MOL       0.0928
      9 CBH        38.4623   -7.7729   10.7820 C.3         1 MOL       0.1121
     10 CBJ        38.7688   -9.2636   11.0746 C.3         1 MOL      -0.0314
     11 OBI        37.2780   -7.4272   11.4997 O.3         1 MOL      -0.3840
     12 NBF        39.2440   -5.5321   11.7699 N.4         1 MOL       0.2497
     13 CAX        40.2598   -4.8458   12.6141 C.3         1 MOL      -0.0062
     14 CAW        39.7498   -3.4969   13.2076 C.3         1 MOL       0.0906
     15 CAY        40.8717   -2.7187   13.9830 C.3         1 MOL       0.0089
     16 CAZ        41.3711   -1.5218   13.2519 C.ar        1 MOL      -0.0406
     17 CBA        42.5768   -1.5543   12.5143 C.ar        1 MOL      -0.0603
     18 CBB        43.0456   -0.4027   11.8551 C.ar        1 MOL      -0.0686
     19 CBC        42.2932    0.7845   11.8921 C.ar        1 MOL      -0.0687
     20 CBD        41.0877    0.8285   12.6111 C.ar        1 MOL      -0.0686
     21 CBE        40.6382   -0.3136   13.3002 C.ar        1 MOL      -0.0603
     22 NAV        38.6742   -3.7666   14.1197 N.am        1 MOL      -0.2761
     23 CAT        37.4674   -3.2209   14.1286 C.2         1 MOL       0.2026
     24 OAU        37.0991   -2.4119   13.2918 O.2         1 MOL      -0.3847
     25 CAP        36.5816   -3.5968   15.1105 C.ar        1 MOL       0.0397
     26 CAQ        36.6689   -3.0310   16.4013 C.ar        1 MOL      -0.0393
     27 CAO        35.6297   -4.6063   14.8540 C.ar        1 MOL      -0.0214
     28 CAN        34.7926   -5.0759   15.8884 C.ar        1 MOL       0.0754
     29 NAE        33.8835   -6.0579   15.6412 N.am        1 MOL      -0.1796
     30 CBT        34.2656   -7.4387   15.5954 C.3         1 MOL       0.0445
     31 SAB        32.3118   -5.5749   15.2383 S.o2        1 MOL       0.0593
     32 OAC        31.8183   -4.4724   16.2758 O.2         1 MOL      -0.1500
     33 OAD        32.3483   -4.9163   13.7922 O.2         1 MOL      -0.1500
     34 CAA        31.0863   -6.9007   15.2117 C.3         1 MOL       0.0790
     35 CAS        34.9065   -4.5268   17.1805 C.ar        1 MOL      -0.0214
     36 CAR        35.8319   -3.4912   17.4424 C.ar        1 MOL       0.0398
     37 CAL        35.9523   -2.9693   18.7117 C.2         1 MOL       0.2041
     38 OAM        36.7754   -3.4837   19.4588 O.2         1 MOL      -0.3845
     39 NBQ        35.1599   -1.9685   19.0813 N.am        1 MOL      -0.2723
     40 CBR        35.1366   -1.2556   20.3324 C.3         1 MOL       0.0723
     41 CBS        36.3280   -0.2612   20.3809 C.3         1 MOL      -0.0320
     42 CAI        34.9363   -2.1393   21.5308 C.ar        1 MOL      -0.0183
     43 CAH        36.0017   -2.5536   22.3707 C.ar        1 MOL      -0.0582
     44 CAG        35.7815   -3.4429   23.4386 C.ar        1 MOL      -0.0685
     45 CAF        34.4914   -3.9371   23.6883 C.ar        1 MOL      -0.0687
     46 CAK        33.4176   -3.5318   22.8767 C.ar        1 MOL      -0.0685
     47 CAJ        33.6411   -2.6496   21.8025 C.ar        1 MOL      -0.0582
     48 H1         42.2283   -2.3270    9.5222 H           1 MOL       0.0233
     49 H2         42.6666   -3.4787   10.7889 H           1 MOL       0.0233
     50 H3         41.1188   -3.6361    9.9386 H           1 MOL       0.0233
     51 H4         42.3866   -4.0010    7.8188 H           1 MOL       0.0315
     52 H5         44.8053   -4.4512    7.7935 H           1 MOL       0.0233
     53 H6         44.9082   -4.0569    9.5221 H           1 MOL       0.0233
     54 H7         44.4453   -2.8139    8.3460 H           1 MOL       0.0233
     55 H8         43.6096   -6.3030    9.1572 H           1 MOL       0.0522
     56 H9         42.2981   -6.2355    8.0195 H           1 MOL       0.0522
     57 H10        42.1605   -6.2664   10.9193 H           1 MOL       0.1853
     58 H11        40.3091   -7.3449   11.8146 H           1 MOL       0.1125
     59 H12        38.1881   -7.6974    9.7270 H           1 MOL       0.0674
     60 H13        37.9155   -9.8829   10.8008 H           1 MOL       0.0258
     61 H14        38.9690   -9.4074   12.1378 H           1 MOL       0.0258
     62 H15        39.6392   -9.5944   10.5060 H           1 MOL       0.0258
     63 H16        37.2686   -8.0114   12.2833 H           1 MOL       0.2102
     64 H17        38.4440   -5.7291   12.3742 H           1 MOL       0.2037
     65 H18        38.9365   -4.8804   11.0449 H           1 MOL       0.2037
     66 H19        41.1557   -4.6594   12.0211 H           1 MOL       0.0839
     67 H20        40.5416   -5.5182   13.4314 H           1 MOL       0.0839
     68 H21        39.4016   -2.8918   12.3620 H           1 MOL       0.0632
     69 H22        41.7024   -3.3906   14.2156 H           1 MOL       0.0450
     70 H23        40.5075   -2.3714   14.9562 H           1 MOL       0.0450
     71 H24        43.1250   -2.4146   12.4574 H           1 MOL       0.0557
     72 H25        43.9350   -0.4278   11.3525 H           1 MOL       0.0599
     73 H26        42.6212    1.6140   11.3944 H           1 MOL       0.0559
     74 H27        40.5340    1.6861   12.6301 H           1 MOL       0.0599
     75 H28        39.7663   -0.2588   13.8303 H           1 MOL       0.0557
     76 H29        38.8680   -4.3928   14.8326 H           1 MOL       0.1852
     77 H30        37.3599   -2.2973   16.5915 H           1 MOL       0.0576
     78 H31        35.5560   -5.0216   13.9206 H           1 MOL       0.0566
     79 H32        35.3179   -7.5879   15.8482 H           1 MOL       0.0517
     80 H33        34.1015   -7.8363   14.5922 H           1 MOL       0.0517
     81 H34        33.6659   -8.0104   16.3056 H           1 MOL       0.0517
     82 H35        30.1283   -6.5048   14.8760 H           1 MOL       0.0487
     83 H36        30.9773   -7.3139   16.2145 H           1 MOL       0.0487
     84 H37        31.4092   -7.6872   14.5303 H           1 MOL       0.0487
     85 H38        34.3035   -4.8810   17.9313 H           1 MOL       0.0566
     86 H39        34.5298   -1.6587   18.4105 H           1 MOL       0.1875
     87 H40        34.2572   -0.6064   20.2783 H           1 MOL       0.0716
     88 H41        36.3073    0.3060   21.3129 H           1 MOL       0.0274
     89 H42        36.2619    0.4482   19.5517 H           1 MOL       0.0274
     90 H43        37.2802   -0.7887   20.3038 H           1 MOL       0.0274
     91 H44        36.9557   -2.2323   22.2020 H           1 MOL       0.0557
     92 H45        36.5651   -3.7407   24.0259 H           1 MOL       0.0599
     93 H46        34.3329   -4.5868   24.4622 H           1 MOL       0.0559
     94 H47        32.4777   -3.8892   23.0604 H           1 MOL       0.0599
     95 H48        32.8472   -2.3839   21.2155 H           1 MOL       0.0557
@<TRIPOS>BOND
     1     1     2   1
     2     2     3   1
     3     2     4   1
     4     4     5   1
     5     5     6  am
     6     6     7   2
     7     6     8   1
     8     8     9   1
     9     8    12   1
    10     9    10   1
    11     9    11   1
    12    12    13   1
    13    13    14   1
    14    14    15   1
    15    14    22   1
    16    15    16   1
    17    16    17  ar
    18    16    21  ar
    19    17    18  ar
    20    18    19  ar
    21    19    20  ar
    22    20    21  ar
    23    22    23  am
    24    23    24   2
    25    23    25   1
    26    25    26  ar
    27    25    27  ar
    28    26    36  ar
    29    27    28  ar
    30    28    29   1
    31    28    35  ar
    32    29    30   1
    33    29    31  am
    34    31    32   2
    35    31    33   2
    36    31    34   1
    37    35    36  ar
    38    36    37   1
    39    37    38   2
    40    37    39  am
    41    39    40   1
    42    40    41   1
    43    40    42   1
    44    42    43  ar
    45    42    47  ar
    46    43    44  ar
    47    44    45  ar
    48    45    46  ar
    49    46    47  ar
    50     1    48   1
    51     1    49   1
    52     1    50   1
    53     2    51   1
    54     3    52   1
    55     3    53   1
    56     3    54   1
    57     4    55   1
    58     4    56   1
    59     5    57   1
    60     8    58   1
    61     9    59   1
    62    10    60   1
    63    10    61   1
    64    10    62   1
    65    11    63   1
    66    12    64   1
    67    12    65   1
    68    13    66   1
    69    13    67   1
    70    14    68   1
    71    15    69   1
    72    15    70   1
    73    17    71   1
    74    18    72   1
    75    19    73   1
    76    20    74   1
    77    21    75   1
    78    22    76   1
    79    26    77   1
    80    27    78   1
    81    30    79   1
    82    30    80   1
    83    30    81   1
    84    34    82   1
    85    34    83   1
    86    34    84   1
    87    35    85   1
    88    39    86   1
    89    40    87   1
    90    41    88   1
    91    41    89   1
    92    41    90   1
    93    43    91   1
    94    44    92   1
    95    45    93   1
    96    46    94   1
    97    47    95   1
@<TRIPOS>SUBSTRUCTURE
     1  MOL      1

