@<TRIPOS>MOLECULE
4gid_ligand_046
    95    97
SMALL
GAST_HUCK
****
This file was generated by PARSER (from files_GN.cpp)

@<TRIPOS>ATOM
      1 CBK        40.4199   -9.4692   10.9752 C.3         1 MOL      -0.0608
      2 CBL        41.0944   -8.2450   10.2932 C.3         1 MOL      -0.0265
      3 CBM        40.7935   -8.2163    8.7698 C.3         1 MOL      -0.0608
      4 CBN        40.6678   -6.9427   11.0351 C.3         1 MOL       0.0334
      5 NBO        40.9727   -5.7058   10.3908 N.am        1 MOL      -0.2820
      6 CBP        42.1640   -5.1624   10.1991 C.2         1 MOL       0.2271
      7 OBV        43.1757   -5.7421   10.5676 O.2         1 MOL      -0.3908
      8 CBG        42.2151   -3.8302    9.6123 C.3         1 MOL       0.0928
      9 CBH        43.5807   -3.3558    9.0102 C.3         1 MOL       0.1121
     10 CBJ        44.5146   -2.5350    9.9327 C.3         1 MOL      -0.0314
     11 OBI        44.3275   -4.4931    8.5632 O.3         1 MOL      -0.3840
     12 NBF        41.5543   -2.8173   10.4933 N.4         1 MOL       0.2497
     13 CAX        41.8337   -2.7802   11.9596 C.3         1 MOL      -0.0062
     14 CAW        40.6445   -2.1756   12.7656 C.3         1 MOL       0.0906
     15 CAY        41.0593   -1.8524   14.2414 C.3         1 MOL       0.0089
     16 CAZ        39.9618   -1.5750   15.2038 C.ar        1 MOL      -0.0406
     17 CBA        39.9595   -2.1757   16.4835 C.ar        1 MOL      -0.0603
     18 CBB        38.9193   -1.9188   17.3946 C.ar        1 MOL      -0.0686
     19 CBC        37.8709   -1.0474   17.0425 C.ar        1 MOL      -0.0687
     20 CBD        37.8655   -0.4319   15.7790 C.ar        1 MOL      -0.0686
     21 CBE        38.9070   -0.6928   14.8684 C.ar        1 MOL      -0.0603
     22 NAV        39.4560   -2.9667   12.5897 N.am        1 MOL      -0.2761
     23 CAT        38.9254   -3.8632   13.4151 C.2         1 MOL       0.2026
     24 OAU        39.4487   -4.1230   14.4918 O.2         1 MOL      -0.3847
     25 CAP        37.7119   -4.4572   13.0906 C.ar        1 MOL       0.0397
     26 CAQ        36.7295   -4.7133   14.0792 C.ar        1 MOL      -0.0393
     27 CAO        37.4325   -4.7986   11.7524 C.ar        1 MOL      -0.0214
     28 CAN        36.2158   -5.4086   11.3971 C.ar        1 MOL       0.0754
     29 NAE        35.9903   -5.7924   10.1033 N.am        1 MOL      -0.1796
     30 CBT        36.0310   -4.8664    9.0050 C.3         1 MOL       0.0445
     31 SAB        35.8308   -7.4547    9.7822 S.o2        1 MOL       0.0593
     32 OAC        34.5030   -8.0566   10.4316 O.2         1 MOL      -0.1500
     33 OAD        35.7136   -7.7447    8.2185 O.2         1 MOL      -0.1500
     34 CAA        37.2476   -8.4345   10.3371 C.3         1 MOL       0.0790
     35 CAS        35.2576   -5.6501   12.4011 C.ar        1 MOL      -0.0214
     36 CAR        35.4806   -5.3082   13.7590 C.ar        1 MOL       0.0398
     37 CAL        34.4948   -5.5490   14.7330 C.2         1 MOL       0.2041
     38 OAM        33.3127   -5.4100   14.4260 O.2         1 MOL      -0.3845
     39 NBQ        34.8001   -5.9284   15.9718 N.am        1 MOL      -0.2723
     40 CBR        33.9041   -6.3119   17.0346 C.3         1 MOL       0.0723
     41 CBS        33.7277   -5.0640   17.9450 C.3         1 MOL      -0.0320
     42 CAI        34.3633   -7.5388   17.7736 C.ar        1 MOL      -0.0183
     43 CAH        35.4156   -8.3664   17.2985 C.ar        1 MOL      -0.0582
     44 CAG        35.8025   -9.5304   17.9892 C.ar        1 MOL      -0.0685
     45 CAF        35.1494   -9.8967   19.1775 C.ar        1 MOL      -0.0687
     46 CAK        34.0969   -9.1059   19.6635 C.ar        1 MOL      -0.0685
     47 CAJ        33.6990   -7.9540   18.9597 C.ar        1 MOL      -0.0582
     48 H1         40.6850  -10.3980   10.4562 H           1 MOL       0.0233
     49 H2         39.3151   -9.3578   10.9650 H           1 MOL       0.0233
     50 H3         40.7698   -9.5484   12.0147 H           1 MOL       0.0233
     51 H4         42.1721   -8.3580   10.4003 H           1 MOL       0.0315
     52 H5         41.3482   -7.4063    8.2909 H           1 MOL       0.0233
     53 H6         39.7239   -8.0662    8.5830 H           1 MOL       0.0233
     54 H7         41.1004   -9.1533    8.2967 H           1 MOL       0.0233
     55 H8         41.1267   -6.9350   12.0292 H           1 MOL       0.0522
     56 H9         39.5823   -6.9503   11.1773 H           1 MOL       0.0522
     57 H10        40.2039   -5.1867   10.0901 H           1 MOL       0.1853
     58 H11        41.5675   -3.8815    8.7382 H           1 MOL       0.1125
     59 H12        43.3806   -2.7355    8.1241 H           1 MOL       0.0674
     60 H13        45.4974   -2.4081    9.4591 H           1 MOL       0.0258
     61 H14        44.6537   -3.0474   10.8857 H           1 MOL       0.0258
     62 H15        44.1114   -1.5374   10.1076 H           1 MOL       0.0258
     63 H16        44.2810   -4.4806    7.5773 H           1 MOL       0.2102
     64 H17        40.5412   -2.9666   10.3968 H           1 MOL       0.2037
     65 H18        41.7528   -1.8805   10.1173 H           1 MOL       0.2037
     66 H19        42.7201   -2.1717   12.1359 H           1 MOL       0.0839
     67 H20        42.0373   -3.7759   12.3515 H           1 MOL       0.0839
     68 H21        40.4137   -1.2153   12.3054 H           1 MOL       0.0632
     69 H22        41.7119   -0.9684   14.2284 H           1 MOL       0.0450
     70 H23        41.6665   -2.6856   14.6116 H           1 MOL       0.0450
     71 H24        40.7111   -2.8083   16.7621 H           1 MOL       0.0557
     72 H25        38.9243   -2.3709   18.3149 H           1 MOL       0.0599
     73 H26        37.1155   -0.8663   17.7056 H           1 MOL       0.0559
     74 H27        37.1068    0.2001   15.5224 H           1 MOL       0.0599
     75 H28        38.8811   -0.2411   13.9493 H           1 MOL       0.0557
     76 H29        38.9608   -2.7933   11.7735 H           1 MOL       0.1852
     77 H30        36.9125   -4.4156   15.0423 H           1 MOL       0.0576
     78 H31        38.1382   -4.6366   11.0358 H           1 MOL       0.0566
     79 H32        36.1471   -3.8366    9.3415 H           1 MOL       0.0517
     80 H33        35.1025   -4.9313    8.4352 H           1 MOL       0.0517
     81 H34        36.8705   -5.1054    8.3490 H           1 MOL       0.0517
     82 H35        37.0513   -9.4785   10.1140 H           1 MOL       0.0487
     83 H36        37.3793   -8.3039   11.4084 H           1 MOL       0.0487
     84 H37        38.1326   -8.1027    9.8050 H           1 MOL       0.0487
     85 H38        34.3707   -6.0785   12.1289 H           1 MOL       0.0566
     86 H39        35.7415   -5.9739   16.1856 H           1 MOL       0.1875
     87 H40        32.9112   -6.5482   16.6390 H           1 MOL       0.0716
     88 H41        32.8948   -5.2067   18.6398 H           1 MOL       0.0274
     89 H42        33.4954   -4.1806   17.3413 H           1 MOL       0.0274
     90 H43        34.6366   -4.8651   18.5214 H           1 MOL       0.0274
     91 H44        35.9090   -8.1472   16.4314 H           1 MOL       0.0557
     92 H45        36.5598  -10.1161   17.6215 H           1 MOL       0.0599
     93 H46        35.4307  -10.7386   19.6782 H           1 MOL       0.0559
     94 H47        33.6147   -9.3699   20.5244 H           1 MOL       0.0599
     95 H48        32.9116   -7.4133   19.3299 H           1 MOL       0.0557
@<TRIPOS>BOND
     1     1     2   1
     2     2     3   1
     3     2     4   1
     4     4     5   1
     5     5     6  am
     6     6     7   2
     7     6     8   1
     8     8     9   1
     9     8    12   1
    10     9    10   1
    11     9    11   1
    12    12    13   1
    13    13    14   1
    14    14    15   1
    15    14    22   1
    16    15    16   1
    17    16    17  ar
    18    16    21  ar
    19    17    18  ar
    20    18    19  ar
    21    19    20  ar
    22    20    21  ar
    23    22    23  am
    24    23    24   2
    25    23    25   1
    26    25    26  ar
    27    25    27  ar
    28    26    36  ar
    29    27    28  ar
    30    28    29   1
    31    28    35  ar
    32    29    30   1
    33    29    31  am
    34    31    32   2
    35    31    33   2
    36    31    34   1
    37    35    36  ar
    38    36    37   1
    39    37    38   2
    40    37    39  am
    41    39    40   1
    42    40    41   1
    43    40    42   1
    44    42    43  ar
    45    42    47  ar
    46    43    44  ar
    47    44    45  ar
    48    45    46  ar
    49    46    47  ar
    50     1    48   1
    51     1    49   1
    52     1    50   1
    53     2    51   1
    54     3    52   1
    55     3    53   1
    56     3    54   1
    57     4    55   1
    58     4    56   1
    59     5    57   1
    60     8    58   1
    61     9    59   1
    62    10    60   1
    63    10    61   1
    64    10    62   1
    65    11    63   1
    66    12    64   1
    67    12    65   1
    68    13    66   1
    69    13    67   1
    70    14    68   1
    71    15    69   1
    72    15    70   1
    73    17    71   1
    74    18    72   1
    75    19    73   1
    76    20    74   1
    77    21    75   1
    78    22    76   1
    79    26    77   1
    80    27    78   1
    81    30    79   1
    82    30    80   1
    83    30    81   1
    84    34    82   1
    85    34    83   1
    86    34    84   1
    87    35    85   1
    88    39    86   1
    89    40    87   1
    90    41    88   1
    91    41    89   1
    92    41    90   1
    93    43    91   1
    94    44    92   1
    95    45    93   1
    96    46    94   1
    97    47    95   1
@<TRIPOS>SUBSTRUCTURE
     1  MOL      1

