@<TRIPOS>MOLECULE
4gid_ligand_052
    95    97
SMALL
GAST_HUCK
****
This file was generated by PARSER (from files_GN.cpp)

@<TRIPOS>ATOM
      1 CBK        42.2230   -7.7758    9.3886 C.3         1 MOL      -0.0608
      2 CBL        41.0283   -6.8388    9.0665 C.3         1 MOL      -0.0265
      3 CBM        41.3118   -5.9842    7.8046 C.3         1 MOL      -0.0608
      4 CBN        39.6888   -7.6180    8.9716 C.3         1 MOL       0.0334
      5 NBO        38.5735   -6.7243    9.0194 N.am        1 MOL      -0.2820
      6 CBP        37.3012   -7.0710    8.9604 C.2         1 MOL       0.2271
      7 OBV        36.9819   -8.2127    8.6053 O.2         1 MOL      -0.3908
      8 CBG        36.2541   -6.1391    9.3815 C.3         1 MOL       0.0928
      9 CBH        35.8288   -5.1386    8.2527 C.3         1 MOL       0.1121
     10 CBJ        36.2679   -5.4935    6.8083 C.3         1 MOL      -0.0314
     11 OBI        34.4063   -4.9924    8.2711 O.3         1 MOL      -0.3840
     12 NBF        36.6403   -5.3168   10.5736 N.4         1 MOL       0.2497
     13 CAX        37.4119   -5.9116   11.6969 C.3         1 MOL      -0.0062
     14 CAW        38.4048   -4.8499   12.2926 C.3         1 MOL       0.0906
     15 CAY        39.7738   -5.4106   12.8188 C.3         1 MOL       0.0089
     16 CAZ        40.9417   -4.5016   12.5914 C.ar        1 MOL      -0.0406
     17 CBA        40.8964   -3.1466   13.0079 C.ar        1 MOL      -0.0603
     18 CBB        41.9285   -2.2517   12.6788 C.ar        1 MOL      -0.0686
     19 CBC        43.0491   -2.7037   11.9658 C.ar        1 MOL      -0.0687
     20 CBD        43.1523   -4.0593   11.6076 C.ar        1 MOL      -0.0686
     21 CBE        42.1089   -4.9454   11.9262 C.ar        1 MOL      -0.0603
     22 NAV        37.7111   -4.2030   13.3717 N.am        1 MOL      -0.2761
     23 CAT        37.4465   -2.9151   13.5472 C.2         1 MOL       0.2026
     24 OAU        37.8848   -2.0754   12.7712 O.2         1 MOL      -0.3847
     25 CAP        36.7499   -2.5140   14.6845 C.ar        1 MOL       0.0397
     26 CAQ        37.0279   -1.2867   15.3263 C.ar        1 MOL      -0.0393
     27 CAO        35.8036   -3.3763   15.2804 C.ar        1 MOL      -0.0214
     28 CAN        35.1415   -3.0443   16.4824 C.ar        1 MOL       0.0754
     29 NAE        34.2166   -3.9124   17.0151 N.am        1 MOL      -0.1796
     30 CBT        34.3498   -4.4205   18.3540 C.3         1 MOL       0.0445
     31 SAB        32.8543   -4.3380   16.0928 S.o2        1 MOL       0.0593
     32 OAC        31.9076   -3.0702   15.9285 O.2         1 MOL      -0.1500
     33 OAD        33.2159   -4.8218   14.6220 O.2         1 MOL      -0.1500
     34 CAA        31.8492   -5.6668   16.7752 C.3         1 MOL       0.0790
     35 CAS        35.5043   -1.8450   17.1357 C.ar        1 MOL      -0.0214
     36 CAR        36.4623   -0.9573   16.5857 C.ar        1 MOL       0.0398
     37 CAL        36.9090    0.1590   17.2859 C.2         1 MOL       0.2041
     38 OAM        37.2191    1.1748   16.6694 O.2         1 MOL      -0.3845
     39 NBQ        37.1430    0.0774   18.5908 N.am        1 MOL      -0.2723
     40 CBR        37.7197    1.0751   19.4598 C.3         1 MOL       0.0723
     41 CBS        39.1606    0.6124   19.7973 C.3         1 MOL      -0.0320
     42 CAI        36.9308    1.3206   20.7138 C.ar        1 MOL      -0.0183
     43 CAH        37.3219    2.3709   21.5815 C.ar        1 MOL      -0.0582
     44 CAG        36.6195    2.6349   22.7742 C.ar        1 MOL      -0.0685
     45 CAF        35.5096    1.8465   23.1198 C.ar        1 MOL      -0.0687
     46 CAK        35.1086    0.7959   22.2821 C.ar        1 MOL      -0.0685
     47 CAJ        35.8075    0.5365   21.0875 C.ar        1 MOL      -0.0582
     48 H1         43.1419   -7.1999    9.5167 H           1 MOL       0.0233
     49 H2         42.3725   -8.4989    8.5863 H           1 MOL       0.0233
     50 H3         42.0409   -8.3235   10.3165 H           1 MOL       0.0233
     51 H4         40.9330   -6.1463    9.9006 H           1 MOL       0.0315
     52 H5         40.4958   -5.2850    7.6233 H           1 MOL       0.0233
     53 H6         41.4267   -6.6132    6.9219 H           1 MOL       0.0233
     54 H7         42.2256   -5.4061    7.9474 H           1 MOL       0.0233
     55 H8         39.6167   -8.3017    9.8252 H           1 MOL       0.0522
     56 H9         39.6528   -8.2181    8.0625 H           1 MOL       0.0522
     57 H10        38.7594   -5.8153    9.3054 H           1 MOL       0.1853
     58 H11        35.3660   -6.7150    9.6738 H           1 MOL       0.1125
     59 H12        36.2439   -4.1454    8.4678 H           1 MOL       0.0674
     60 H13        35.8684   -4.7702    6.0990 H           1 MOL       0.0258
     61 H14        35.9099   -6.4856    6.5439 H           1 MOL       0.0258
     62 H15        37.3549   -5.4739    6.7337 H           1 MOL       0.0258
     63 H16        34.2186   -4.1656    7.7732 H           1 MOL       0.2102
     64 H17        35.7843   -4.9015   10.9628 H           1 MOL       0.2037
     65 H18        37.2122   -4.5524   10.2106 H           1 MOL       0.2037
     66 H19        37.9704   -6.7848   11.3665 H           1 MOL       0.0839
     67 H20        36.7123   -6.2803   12.4469 H           1 MOL       0.0839
     68 H21        38.6451   -4.1268   11.5046 H           1 MOL       0.0632
     69 H22        39.9776   -6.3718   12.3383 H           1 MOL       0.0450
     70 H23        39.6993   -5.6123   13.8865 H           1 MOL       0.0450
     71 H24        40.1007   -2.7899   13.5272 H           1 MOL       0.0557
     72 H25        41.8610   -1.2683   12.9608 H           1 MOL       0.0599
     73 H26        43.7999   -2.0531   11.7255 H           1 MOL       0.0559
     74 H27        43.9818   -4.3924   11.1161 H           1 MOL       0.0599
     75 H28        42.2148   -5.9230   11.6611 H           1 MOL       0.0557
     76 H29        37.3915   -4.8005   14.0637 H           1 MOL       0.1852
     77 H30        37.7339   -0.6635   14.9164 H           1 MOL       0.0576
     78 H31        35.5989   -4.2745   14.8423 H           1 MOL       0.0566
     79 H32        35.2723   -4.0923   18.8411 H           1 MOL       0.0517
     80 H33        34.3646   -5.5094   18.3331 H           1 MOL       0.0517
     81 H34        33.5122   -4.0918   18.9682 H           1 MOL       0.0517
     82 H35        31.0542   -5.9180   16.0753 H           1 MOL       0.0487
     83 H36        31.4095   -5.3492   17.7197 H           1 MOL       0.0487
     84 H37        32.4653   -6.5500   16.9399 H           1 MOL       0.0487
     85 H38        35.0553   -1.6190   18.0271 H           1 MOL       0.0566
     86 H39        36.9824   -0.7894   19.0046 H           1 MOL       0.1875
     87 H40        37.7937    2.0307   18.9316 H           1 MOL       0.0716
     88 H41        39.6930    1.3777   20.3633 H           1 MOL       0.0274
     89 H42        39.7206    0.4254   18.8789 H           1 MOL       0.0274
     90 H43        39.1393   -0.3077   20.3864 H           1 MOL       0.0274
     91 H44        38.1260    2.9591   21.3498 H           1 MOL       0.0557
     92 H45        36.9169    3.3978   23.3818 H           1 MOL       0.0599
     93 H46        34.9987    2.0369   23.9852 H           1 MOL       0.0559
     94 H47        34.3065    0.2134   22.5370 H           1 MOL       0.0599
     95 H48        35.4886   -0.2372   20.5040 H           1 MOL       0.0557
@<TRIPOS>BOND
     1     1     2   1
     2     2     3   1
     3     2     4   1
     4     4     5   1
     5     5     6  am
     6     6     7   2
     7     6     8   1
     8     8     9   1
     9     8    12   1
    10     9    10   1
    11     9    11   1
    12    12    13   1
    13    13    14   1
    14    14    15   1
    15    14    22   1
    16    15    16   1
    17    16    17  ar
    18    16    21  ar
    19    17    18  ar
    20    18    19  ar
    21    19    20  ar
    22    20    21  ar
    23    22    23  am
    24    23    24   2
    25    23    25   1
    26    25    26  ar
    27    25    27  ar
    28    26    36  ar
    29    27    28  ar
    30    28    29   1
    31    28    35  ar
    32    29    30   1
    33    29    31  am
    34    31    32   2
    35    31    33   2
    36    31    34   1
    37    35    36  ar
    38    36    37   1
    39    37    38   2
    40    37    39  am
    41    39    40   1
    42    40    41   1
    43    40    42   1
    44    42    43  ar
    45    42    47  ar
    46    43    44  ar
    47    44    45  ar
    48    45    46  ar
    49    46    47  ar
    50     1    48   1
    51     1    49   1
    52     1    50   1
    53     2    51   1
    54     3    52   1
    55     3    53   1
    56     3    54   1
    57     4    55   1
    58     4    56   1
    59     5    57   1
    60     8    58   1
    61     9    59   1
    62    10    60   1
    63    10    61   1
    64    10    62   1
    65    11    63   1
    66    12    64   1
    67    12    65   1
    68    13    66   1
    69    13    67   1
    70    14    68   1
    71    15    69   1
    72    15    70   1
    73    17    71   1
    74    18    72   1
    75    19    73   1
    76    20    74   1
    77    21    75   1
    78    22    76   1
    79    26    77   1
    80    27    78   1
    81    30    79   1
    82    30    80   1
    83    30    81   1
    84    34    82   1
    85    34    83   1
    86    34    84   1
    87    35    85   1
    88    39    86   1
    89    40    87   1
    90    41    88   1
    91    41    89   1
    92    41    90   1
    93    43    91   1
    94    44    92   1
    95    45    93   1
    96    46    94   1
    97    47    95   1
@<TRIPOS>SUBSTRUCTURE
     1  MOL      1

