@<TRIPOS>MOLECULE
4gid_ligand_033
    95    97
SMALL
GAST_HUCK
****
This file was generated by PARSER (from files_GN.cpp)

@<TRIPOS>ATOM
      1 CBK        40.2877   -0.8457   14.0354 C.3         1 MOL      -0.0608
      2 CBL        39.9979   -2.3698   13.9292 C.3         1 MOL      -0.0265
      3 CBM        38.7618   -2.6380   13.0293 C.3         1 MOL      -0.0608
      4 CBN        41.2398   -3.1902   13.4670 C.3         1 MOL       0.0334
      5 NBO        41.8362   -2.6759   12.2755 N.am        1 MOL      -0.2820
      6 CBP        42.9899   -3.0727   11.7397 C.2         1 MOL       0.2271
      7 OBV        43.6286   -3.9852   12.2523 O.2         1 MOL      -0.3908
      8 CBG        43.4652   -2.4603   10.5032 C.3         1 MOL       0.0928
      9 CBH        43.1846   -3.3295    9.2319 C.3         1 MOL       0.1121
     10 CBJ        41.6792   -3.5326    8.9429 C.3         1 MOL      -0.0314
     11 OBI        43.7874   -2.6966    8.1012 O.3         1 MOL      -0.3840
     12 NBF        44.8725   -1.9675   10.6112 N.4         1 MOL       0.2497
     13 CAX        46.0248   -2.8587   10.2854 C.3         1 MOL      -0.0062
     14 CAW        47.3374   -2.0294   10.0198 C.3         1 MOL       0.0906
     15 CAY        48.2159   -2.5743    8.8337 C.3         1 MOL       0.0089
     16 CAZ        49.2319   -3.6316    9.1160 C.ar        1 MOL      -0.0406
     17 CBA        48.9746   -4.6736   10.0378 C.ar        1 MOL      -0.0603
     18 CBB        49.9434   -5.6612   10.3036 C.ar        1 MOL      -0.0686
     19 CBC        51.1707   -5.6466    9.6229 C.ar        1 MOL      -0.0687
     20 CBD        51.4359   -4.6384    8.6817 C.ar        1 MOL      -0.0686
     21 CBE        50.4773   -3.6366    8.4376 C.ar        1 MOL      -0.0603
     22 NAV        48.1280   -1.8768   11.2123 N.am        1 MOL      -0.2761
     23 CAT        47.8990   -1.0543   12.2310 C.2         1 MOL       0.2026
     24 OAU        46.9561   -0.2671   12.2283 O.2         1 MOL      -0.3847
     25 CAP        48.8306   -0.9851   13.2457 C.ar        1 MOL       0.0397
     26 CAQ        49.2112   -2.1444   13.9629 C.ar        1 MOL      -0.0393
     27 CAO        49.4456    0.2463   13.5551 C.ar        1 MOL      -0.0214
     28 CAN        50.4603    0.3303   14.5334 C.ar        1 MOL       0.0754
     29 NAE        51.0575    1.5267   14.8204 N.am        1 MOL      -0.1796
     30 CBT        50.6695    2.3080   15.9589 C.3         1 MOL       0.0445
     31 SAB        52.2882    2.1249   13.8204 S.o2        1 MOL       0.0593
     32 OAC        53.5638    2.4472   14.7166 O.2         1 MOL      -0.1500
     33 OAD        52.8069    0.9955   12.8301 O.2         1 MOL      -0.1500
     34 CAA        51.8375    3.6036   12.8916 C.3         1 MOL       0.0790
     35 CAS        50.8306   -0.8440   15.2228 C.ar        1 MOL      -0.0214
     36 CAR        50.2015   -2.0897   14.9785 C.ar        1 MOL       0.0398
     37 CAL        50.5492   -3.2228   15.7186 C.2         1 MOL       0.2041
     38 OAM        51.7305   -3.5487   15.7968 O.2         1 MOL      -0.3845
     39 NBQ        49.6313   -3.9169   16.3894 N.am        1 MOL      -0.2723
     40 CBR        49.8703   -5.0366   17.2587 C.3         1 MOL       0.0723
     41 CBS        48.6424   -5.9850   17.2410 C.3         1 MOL      -0.0320
     42 CAI        50.1948   -4.5974   18.6552 C.ar        1 MOL      -0.0183
     43 CAH        51.4070   -4.9848   19.2769 C.ar        1 MOL      -0.0582
     44 CAG        51.6937   -4.6083   20.6028 C.ar        1 MOL      -0.0685
     45 CAF        50.7722   -3.8361   21.3305 C.ar        1 MOL      -0.0687
     46 CAK        49.5700   -3.4294   20.7257 C.ar        1 MOL      -0.0685
     47 CAJ        49.2880   -3.8009   19.3983 C.ar        1 MOL      -0.0582
     48 H1         39.4425   -0.3365   14.5051 H           1 MOL       0.0233
     49 H2         40.4462   -0.4060   13.0470 H           1 MOL       0.0233
     50 H3         41.1768   -0.6645   14.6438 H           1 MOL       0.0233
     51 H4         39.7387   -2.7161   14.9355 H           1 MOL       0.0315
     52 H5         38.4802   -3.6933   13.0787 H           1 MOL       0.0233
     53 H6         38.9808   -2.3847   11.9901 H           1 MOL       0.0233
     54 H7         37.9080   -2.0422   13.3637 H           1 MOL       0.0233
     55 H8         40.9435   -4.2300   13.3064 H           1 MOL       0.0522
     56 H9         41.9787   -3.1763   14.2679 H           1 MOL       0.0522
     57 H10        41.3529   -1.9759   11.8049 H           1 MOL       0.1853
     58 H11        42.8937   -1.5375   10.3519 H           1 MOL       0.1125
     59 H12        43.6386   -4.3165    9.3458 H           1 MOL       0.0674
     60 H13        41.5452   -4.0705    8.0022 H           1 MOL       0.0258
     61 H14        41.1761   -2.5674    8.8649 H           1 MOL       0.0258
     62 H15        41.2147   -4.1125    9.7413 H           1 MOL       0.0258
     63 H16        43.4771   -3.1835    7.3075 H           1 MOL       0.2102
     64 H17        45.0030   -1.6145   11.5647 H           1 MOL       0.2037
     65 H18        44.9299   -1.1651    9.9741 H           1 MOL       0.2037
     66 H19        45.7780   -3.4512    9.4053 H           1 MOL       0.0839
     67 H20        46.1713   -3.5608   11.1127 H           1 MOL       0.0839
     68 H21        47.0305   -1.0220    9.7069 H           1 MOL       0.0632
     69 H22        48.7273   -1.7089    8.4015 H           1 MOL       0.0450
     70 H23        47.5717   -2.9592    8.0433 H           1 MOL       0.0450
     71 H24        48.0881   -4.7110   10.5445 H           1 MOL       0.0557
     72 H25        49.7541   -6.3948   10.9916 H           1 MOL       0.0599
     73 H26        51.8715   -6.3650    9.8201 H           1 MOL       0.0559
     74 H27        52.3259   -4.6345    8.1745 H           1 MOL       0.0599
     75 H28        50.6963   -2.9168    7.7459 H           1 MOL       0.0557
     76 H29        48.9525   -2.3853   11.2567 H           1 MOL       0.1852
     77 H30        48.7614   -3.0374   13.7355 H           1 MOL       0.0576
     78 H31        49.1662    1.0928   13.0503 H           1 MOL       0.0566
     79 H32        49.8439    1.8573   16.5118 H           1 MOL       0.0517
     80 H33        50.3452    3.2983   15.6357 H           1 MOL       0.0517
     81 H34        51.5111    2.4205   16.6447 H           1 MOL       0.0517
     82 H35        52.6769    3.9214   12.2726 H           1 MOL       0.0487
     83 H36        51.5878    4.3987   13.5933 H           1 MOL       0.0487
     84 H37        50.9766    3.4015   12.2543 H           1 MOL       0.0487
     85 H38        51.5629   -0.7765   15.9345 H           1 MOL       0.0566
     86 H39        48.7113   -3.6223   16.3059 H           1 MOL       0.1875
     87 H40        50.6997   -5.6181   16.8416 H           1 MOL       0.0716
     88 H41        48.8245   -6.8529   17.8786 H           1 MOL       0.0274
     89 H42        48.4523   -6.3395   16.2261 H           1 MOL       0.0274
     90 H43        47.7439   -5.4771   17.5983 H           1 MOL       0.0274
     91 H44        52.0897   -5.5543   18.7720 H           1 MOL       0.0557
     92 H45        52.5708   -4.8991   21.0396 H           1 MOL       0.0599
     93 H46        50.9776   -3.5674   22.2951 H           1 MOL       0.0559
     94 H47        48.9004   -2.8651   21.2535 H           1 MOL       0.0599
     95 H48        48.4065   -3.4948   18.9807 H           1 MOL       0.0557
@<TRIPOS>BOND
     1     1     2   1
     2     2     3   1
     3     2     4   1
     4     4     5   1
     5     5     6  am
     6     6     7   2
     7     6     8   1
     8     8     9   1
     9     8    12   1
    10     9    10   1
    11     9    11   1
    12    12    13   1
    13    13    14   1
    14    14    15   1
    15    14    22   1
    16    15    16   1
    17    16    17  ar
    18    16    21  ar
    19    17    18  ar
    20    18    19  ar
    21    19    20  ar
    22    20    21  ar
    23    22    23  am
    24    23    24   2
    25    23    25   1
    26    25    26  ar
    27    25    27  ar
    28    26    36  ar
    29    27    28  ar
    30    28    29   1
    31    28    35  ar
    32    29    30   1
    33    29    31  am
    34    31    32   2
    35    31    33   2
    36    31    34   1
    37    35    36  ar
    38    36    37   1
    39    37    38   2
    40    37    39  am
    41    39    40   1
    42    40    41   1
    43    40    42   1
    44    42    43  ar
    45    42    47  ar
    46    43    44  ar
    47    44    45  ar
    48    45    46  ar
    49    46    47  ar
    50     1    48   1
    51     1    49   1
    52     1    50   1
    53     2    51   1
    54     3    52   1
    55     3    53   1
    56     3    54   1
    57     4    55   1
    58     4    56   1
    59     5    57   1
    60     8    58   1
    61     9    59   1
    62    10    60   1
    63    10    61   1
    64    10    62   1
    65    11    63   1
    66    12    64   1
    67    12    65   1
    68    13    66   1
    69    13    67   1
    70    14    68   1
    71    15    69   1
    72    15    70   1
    73    17    71   1
    74    18    72   1
    75    19    73   1
    76    20    74   1
    77    21    75   1
    78    22    76   1
    79    26    77   1
    80    27    78   1
    81    30    79   1
    82    30    80   1
    83    30    81   1
    84    34    82   1
    85    34    83   1
    86    34    84   1
    87    35    85   1
    88    39    86   1
    89    40    87   1
    90    41    88   1
    91    41    89   1
    92    41    90   1
    93    43    91   1
    94    44    92   1
    95    45    93   1
    96    46    94   1
    97    47    95   1
@<TRIPOS>SUBSTRUCTURE
     1  MOL      1

