@<TRIPOS>MOLECULE
4gid_ligand_070
    95    97
SMALL
GAST_HUCK
****
This file was generated by PARSER (from files_GN.cpp)

@<TRIPOS>ATOM
      1 CBK        33.4557   -2.8847    6.4550 C.3         1 MOL      -0.0608
      2 CBL        32.3776   -3.1787    7.5449 C.3         1 MOL      -0.0265
      3 CBM        31.6749   -4.5376    7.2705 C.3         1 MOL      -0.0608
      4 CBN        32.9525   -3.0530    8.9919 C.3         1 MOL       0.0334
      5 NBO        34.1505   -3.8056    9.2116 N.am        1 MOL      -0.2820
      6 CBP        34.2572   -5.1276    9.2391 C.2         1 MOL       0.2271
      7 OBV        33.2290   -5.8033    9.2544 O.2         1 MOL      -0.3908
      8 CBG        35.5801   -5.7647    9.2550 C.3         1 MOL       0.0928
      9 CBH        36.4076   -5.3377    7.9941 C.3         1 MOL       0.1121
     10 CBJ        37.7193   -6.1290    7.7527 C.3         1 MOL      -0.0314
     11 OBI        35.5923   -5.3982    6.8172 O.3         1 MOL      -0.3840
     12 NBF        35.3893   -7.2362    9.4170 N.4         1 MOL       0.2497
     13 CAX        36.4523   -8.2156    9.7193 C.3         1 MOL      -0.0062
     14 CAW        37.4846   -7.8500   10.8287 C.3         1 MOL       0.0906
     15 CAY        38.2773   -9.1294   11.2681 C.3         1 MOL       0.0089
     16 CAZ        39.7207   -8.9553   11.5985 C.ar        1 MOL      -0.0406
     17 CBA        40.2668   -9.5297   12.7713 C.ar        1 MOL      -0.0603
     18 CBB        41.6559   -9.5170   13.0003 C.ar        1 MOL      -0.0686
     19 CBC        42.5175   -8.8880   12.0818 C.ar        1 MOL      -0.0687
     20 CBD        41.9944   -8.3016   10.9186 C.ar        1 MOL      -0.0686
     21 CBE        40.6073   -8.3483   10.6704 C.ar        1 MOL      -0.0603
     22 NAV        36.8161   -7.2247   11.9476 N.am        1 MOL      -0.2761
     23 CAT        37.0570   -6.0152   12.4480 C.2         1 MOL       0.2026
     24 OAU        38.0696   -5.4304   12.0735 O.2         1 MOL      -0.3847
     25 CAP        36.2510   -5.4032   13.4307 C.ar        1 MOL       0.0397
     26 CAQ        36.4152   -4.0303   13.7522 C.ar        1 MOL      -0.0393
     27 CAO        35.2696   -6.1190   14.1658 C.ar        1 MOL      -0.0214
     28 CAN        34.5516   -5.5292   15.2321 C.ar        1 MOL       0.0754
     29 NAE        33.6697   -6.2730   15.9725 N.am        1 MOL      -0.1796
     30 CBT        34.0678   -7.4971   16.6073 C.3         1 MOL       0.0445
     31 SAB        32.0296   -5.8605   15.9392 S.o2        1 MOL       0.0593
     32 OAC        31.2523   -6.6052   17.1128 O.2         1 MOL      -0.1500
     33 OAD        31.8109   -4.3181   16.2529 O.2         1 MOL      -0.1500
     34 CAA        31.2239   -6.3327   14.4037 C.3         1 MOL       0.0790
     35 CAS        34.7853   -4.1777   15.5506 C.ar        1 MOL      -0.0214
     36 CAR        35.7041   -3.4037   14.8018 C.ar        1 MOL       0.0398
     37 CAL        35.9441   -2.0762   15.1239 C.2         1 MOL       0.2041
     38 OAM        35.9061   -1.2317   14.2320 O.2         1 MOL      -0.3845
     39 NBQ        36.3080   -1.7642   16.3640 N.am        1 MOL      -0.2723
     40 CBR        36.6910   -0.4741   16.8779 C.3         1 MOL       0.0723
     41 CBS        38.2428   -0.4431   16.7831 C.3         1 MOL      -0.0320
     42 CAI        36.1149   -0.2473   18.2528 C.ar        1 MOL      -0.0183
     43 CAH        34.8110   -0.7112   18.5748 C.ar        1 MOL      -0.0582
     44 CAG        34.2383   -0.4826   19.8417 C.ar        1 MOL      -0.0685
     45 CAF        34.9543    0.2262   20.8178 C.ar        1 MOL      -0.0687
     46 CAK        36.2335    0.7227   20.5194 C.ar        1 MOL      -0.0685
     47 CAJ        36.7973    0.4995   19.2473 C.ar        1 MOL      -0.0582
     48 H1         32.9814   -2.6949    5.4864 H           1 MOL       0.0233
     49 H2         34.1405   -3.7330    6.3478 H           1 MOL       0.0233
     50 H3         34.0455   -2.0021    6.7219 H           1 MOL       0.0233
     51 H4         31.5929   -2.4138    7.4433 H           1 MOL       0.0315
     52 H5         30.9761   -4.7791    8.0773 H           1 MOL       0.0233
     53 H6         32.4113   -5.3425    7.1821 H           1 MOL       0.0233
     54 H7         31.1053   -4.4898    6.3354 H           1 MOL       0.0233
     55 H8         32.1878   -3.3159    9.7259 H           1 MOL       0.0522
     56 H9         33.1969   -2.0001    9.1552 H           1 MOL       0.0522
     57 H10        34.9652   -3.2845    9.2577 H           1 MOL       0.1853
     58 H11        36.0930   -5.3653   10.1290 H           1 MOL       0.1125
     59 H12        36.7241   -4.2902    8.1120 H           1 MOL       0.0674
     60 H13        38.3056   -5.6312    6.9750 H           1 MOL       0.0258
     61 H14        37.4999   -7.1426    7.4067 H           1 MOL       0.0258
     62 H15        38.3203   -6.1862    8.6690 H           1 MOL       0.0258
     63 H16        36.0014   -4.7626    6.1890 H           1 MOL       0.2102
     64 H17        34.9246   -7.5663    8.5705 H           1 MOL       0.2037
     65 H18        34.7198   -7.3361   10.1780 H           1 MOL       0.2037
     66 H19        36.9865   -8.4566    8.7956 H           1 MOL       0.0839
     67 H20        35.9234   -9.1182   10.0210 H           1 MOL       0.0839
     68 H21        38.1845   -7.1488   10.3564 H           1 MOL       0.0632
     69 H22        38.2737   -9.8684   10.4614 H           1 MOL       0.0450
     70 H23        37.7543   -9.6014   12.1105 H           1 MOL       0.0450
     71 H24        39.6702  -10.0190   13.4436 H           1 MOL       0.0557
     72 H25        42.0381   -9.9677   13.8305 H           1 MOL       0.0599
     73 H26        43.5246   -8.8830   12.2529 H           1 MOL       0.0559
     74 H27        42.6218   -7.8657   10.2363 H           1 MOL       0.0599
     75 H28        40.2570   -7.9736    9.7864 H           1 MOL       0.0557
     76 H29        36.0627   -7.7156   12.3176 H           1 MOL       0.1852
     77 H30        37.1049   -3.4707   13.2405 H           1 MOL       0.0576
     78 H31        35.0903   -7.1014   13.9593 H           1 MOL       0.0566
     79 H32        35.1434   -7.6759   16.5342 H           1 MOL       0.0517
     80 H33        33.5528   -8.3440   16.1482 H           1 MOL       0.0517
     81 H34        33.8104   -7.4613   17.6675 H           1 MOL       0.0517
     82 H35        30.1732   -6.0539   14.4367 H           1 MOL       0.0487
     83 H36        31.3054   -7.4105   14.2751 H           1 MOL       0.0487
     84 H37        31.7062   -5.8290   13.5676 H           1 MOL       0.0487
     85 H38        34.2784   -3.7476   16.3310 H           1 MOL       0.0566
     86 H39        36.3925   -2.5107   16.9825 H           1 MOL       0.1875
     87 H40        36.3026    0.3281   16.2408 H           1 MOL       0.0716
     88 H41        38.6324    0.5437   17.0212 H           1 MOL       0.0274
     89 H42        38.5683   -0.6796   15.7683 H           1 MOL       0.0274
     90 H43        38.6828   -1.1691   17.4685 H           1 MOL       0.0274
     91 H44        34.2499   -1.2193   17.8874 H           1 MOL       0.0557
     92 H45        33.2992   -0.8300   20.0506 H           1 MOL       0.0599
     93 H46        34.5402    0.3953   21.7383 H           1 MOL       0.0559
     94 H47        36.7498    1.2547   21.2224 H           1 MOL       0.0599
     95 H48        37.7151    0.9026   19.0646 H           1 MOL       0.0557
@<TRIPOS>BOND
     1     1     2   1
     2     2     3   1
     3     2     4   1
     4     4     5   1
     5     5     6  am
     6     6     7   2
     7     6     8   1
     8     8     9   1
     9     8    12   1
    10     9    10   1
    11     9    11   1
    12    12    13   1
    13    13    14   1
    14    14    15   1
    15    14    22   1
    16    15    16   1
    17    16    17  ar
    18    16    21  ar
    19    17    18  ar
    20    18    19  ar
    21    19    20  ar
    22    20    21  ar
    23    22    23  am
    24    23    24   2
    25    23    25   1
    26    25    26  ar
    27    25    27  ar
    28    26    36  ar
    29    27    28  ar
    30    28    29   1
    31    28    35  ar
    32    29    30   1
    33    29    31  am
    34    31    32   2
    35    31    33   2
    36    31    34   1
    37    35    36  ar
    38    36    37   1
    39    37    38   2
    40    37    39  am
    41    39    40   1
    42    40    41   1
    43    40    42   1
    44    42    43  ar
    45    42    47  ar
    46    43    44  ar
    47    44    45  ar
    48    45    46  ar
    49    46    47  ar
    50     1    48   1
    51     1    49   1
    52     1    50   1
    53     2    51   1
    54     3    52   1
    55     3    53   1
    56     3    54   1
    57     4    55   1
    58     4    56   1
    59     5    57   1
    60     8    58   1
    61     9    59   1
    62    10    60   1
    63    10    61   1
    64    10    62   1
    65    11    63   1
    66    12    64   1
    67    12    65   1
    68    13    66   1
    69    13    67   1
    70    14    68   1
    71    15    69   1
    72    15    70   1
    73    17    71   1
    74    18    72   1
    75    19    73   1
    76    20    74   1
    77    21    75   1
    78    22    76   1
    79    26    77   1
    80    27    78   1
    81    30    79   1
    82    30    80   1
    83    30    81   1
    84    34    82   1
    85    34    83   1
    86    34    84   1
    87    35    85   1
    88    39    86   1
    89    40    87   1
    90    41    88   1
    91    41    89   1
    92    41    90   1
    93    43    91   1
    94    44    92   1
    95    45    93   1
    96    46    94   1
    97    47    95   1
@<TRIPOS>SUBSTRUCTURE
     1  MOL      1

