@<TRIPOS>MOLECULE
4gid_ligand_004
    95    97
SMALL
GAST_HUCK
****
This file was generated by PARSER (from files_GN.cpp)

@<TRIPOS>ATOM
      1 CBK        38.4724   -2.1548   13.7721 C.3         1 MOL      -0.0608
      2 CBL        39.6068   -3.1929   13.9912 C.3         1 MOL      -0.0265
      3 CBM        39.3277   -4.4785   13.1634 C.3         1 MOL      -0.0608
      4 CBN        41.0221   -2.6012   13.7116 C.3         1 MOL       0.0334
      5 NBO        41.3489   -2.6281   12.3196 N.am        1 MOL      -0.2820
      6 CBP        42.1978   -3.4536   11.7139 C.2         1 MOL       0.2271
      7 OBV        42.9353   -4.1980   12.3524 O.2         1 MOL      -0.3908
      8 CBG        42.2154   -3.5279   10.2489 C.3         1 MOL       0.0928
      9 CBH        42.2843   -4.9897    9.6798 C.3         1 MOL       0.1121
     10 CBJ        41.7892   -6.1044   10.6542 C.3         1 MOL      -0.0314
     11 OBI        41.5067   -5.0909    8.4764 O.3         1 MOL      -0.3840
     12 NBF        43.2558   -2.6728    9.6044 N.4         1 MOL       0.2497
     13 CAX        44.6293   -2.6108   10.1591 C.3         1 MOL      -0.0062
     14 CAW        44.8133   -1.3595   11.0758 C.3         1 MOL       0.0906
     15 CAY        44.8261   -0.0245   10.2672 C.3         1 MOL       0.0089
     16 CAZ        45.3403    1.1399   11.0365 C.ar        1 MOL      -0.0406
     17 CBA        44.4738    1.9208   11.8347 C.ar        1 MOL      -0.0603
     18 CBB        44.9779    2.9944   12.5895 C.ar        1 MOL      -0.0686
     19 CBC        46.3511    3.3048   12.5458 C.ar        1 MOL      -0.0687
     20 CBD        47.2200    2.5305   11.7606 C.ar        1 MOL      -0.0686
     21 CBE        46.7163    1.4634   11.0035 C.ar        1 MOL      -0.0603
     22 NAV        45.9393   -1.5045   11.9635 N.am        1 MOL      -0.2761
     23 CAT        47.2292   -1.5094   11.6412 C.2         1 MOL       0.2026
     24 OAU        47.6143   -1.4214   10.4808 O.2         1 MOL      -0.3847
     25 CAP        48.1729   -1.4341   12.6598 C.ar        1 MOL       0.0397
     26 CAQ        48.3320   -2.4915   13.5859 C.ar        1 MOL      -0.0393
     27 CAO        48.9702   -0.2771   12.8041 C.ar        1 MOL      -0.0214
     28 CAN        49.9023   -0.1721   13.8520 C.ar        1 MOL       0.0754
     29 NAE        50.6188    0.9768   14.0082 N.am        1 MOL      -0.1796
     30 CBT        51.5850    1.3936   13.0338 C.3         1 MOL       0.0445
     31 SAB        50.1837    2.0436   15.2456 S.o2        1 MOL       0.0593
     32 OAC        49.4833    3.3299   14.6274 O.2         1 MOL      -0.1500
     33 OAD        49.0953    1.3860   16.2022 O.2         1 MOL      -0.1500
     34 CAA        51.5501    2.5467   16.3092 C.3         1 MOL       0.0790
     35 CAS        50.0685   -1.2590   14.7335 C.ar        1 MOL      -0.0214
     36 CAR        49.3012   -2.4495   14.6248 C.ar        1 MOL       0.0398
     37 CAL        49.4913   -3.5482   15.4825 C.2         1 MOL       0.2041
     38 OAM        48.7639   -4.5274   15.3779 O.2         1 MOL      -0.3845
     39 NBQ        50.4789   -3.5879   16.3739 N.am        1 MOL      -0.2723
     40 CBR        50.8771   -4.6767   17.2305 C.3         1 MOL       0.0723
     41 CBS        50.9354   -4.1338   18.6851 C.3         1 MOL      -0.0320
     42 CAI        52.1899   -5.2808   16.8235 C.ar        1 MOL      -0.0183
     43 CAH        52.5654   -6.5390   17.3589 C.ar        1 MOL      -0.0582
     44 CAG        53.7935   -7.1381   17.0177 C.ar        1 MOL      -0.0685
     45 CAF        54.6652   -6.4961   16.1241 C.ar        1 MOL      -0.0687
     46 CAK        54.3096   -5.2557   15.5714 C.ar        1 MOL      -0.0685
     47 CAJ        53.0861   -4.6542   15.9177 C.ar        1 MOL      -0.0582
     48 H1         37.5049   -2.5735   14.0597 H           1 MOL       0.0233
     49 H2         38.4196   -1.8585   12.7227 H           1 MOL       0.0233
     50 H3         38.6456   -1.2634   14.3757 H           1 MOL       0.0233
     51 H4         39.5717   -3.4838   15.0472 H           1 MOL       0.0315
     52 H5         40.1445   -5.1936   13.2677 H           1 MOL       0.0233
     53 H6         39.2181   -4.2428   12.1023 H           1 MOL       0.0233
     54 H7         38.4061   -4.9633   13.4999 H           1 MOL       0.0233
     55 H8         41.7432   -3.1571   14.3098 H           1 MOL       0.0522
     56 H9         41.0557   -1.5683   14.0552 H           1 MOL       0.0522
     57 H10        40.8685   -1.9973   11.7550 H           1 MOL       0.1853
     58 H11        41.2629   -3.1294    9.8819 H           1 MOL       0.1125
     59 H12        43.3234   -5.2348    9.4126 H           1 MOL       0.0674
     60 H13        41.7403   -7.0725   10.1294 H           1 MOL       0.0258
     61 H14        40.7875   -5.8554   11.0368 H           1 MOL       0.0258
     62 H15        42.4836   -6.2040   11.4990 H           1 MOL       0.0258
     63 H16        40.5813   -4.9458    8.7707 H           1 MOL       0.2102
     64 H17        42.8883   -1.7211    9.5858 H           1 MOL       0.2037
     65 H18        43.3415   -2.9853    8.6320 H           1 MOL       0.2037
     66 H19        45.3401   -2.5528    9.3293 H           1 MOL       0.0839
     67 H20        44.8672   -3.5265   10.7150 H           1 MOL       0.0839
     68 H21        43.9576   -1.3204   11.7557 H           1 MOL       0.0632
     69 H22        43.8146    0.2068    9.9297 H           1 MOL       0.0450
     70 H23        45.4270   -0.1681    9.3646 H           1 MOL       0.0450
     71 H24        43.4750    1.7091   11.8821 H           1 MOL       0.0557
     72 H25        44.3507    3.5467   13.1798 H           1 MOL       0.0599
     73 H26        46.7267    4.0761   13.0986 H           1 MOL       0.0559
     74 H27        48.2227    2.7281   11.7427 H           1 MOL       0.0599
     75 H28        47.3603    0.8952   10.4561 H           1 MOL       0.0557
     76 H29        45.7363   -1.4837   12.9211 H           1 MOL       0.1852
     77 H30        47.7449   -3.3255   13.4663 H           1 MOL       0.0576
     78 H31        48.8331    0.5152   12.1634 H           1 MOL       0.0566
     79 H32        51.7618    0.6310   12.2693 H           1 MOL       0.0517
     80 H33        52.5416    1.6014   13.5196 H           1 MOL       0.0517
     81 H34        51.2387    2.3007   12.5330 H           1 MOL       0.0517
     82 H35        51.1775    3.1880   17.1118 H           1 MOL       0.0487
     83 H36        52.2840    3.1006   15.7210 H           1 MOL       0.0487
     84 H37        52.0240    1.6638   16.7426 H           1 MOL       0.0487
     85 H38        50.7678   -1.1531   15.4643 H           1 MOL       0.0566
     86 H39        51.0430   -2.8058   16.4327 H           1 MOL       0.1875
     87 H40        50.1225   -5.4692   17.2085 H           1 MOL       0.0716
     88 H41        51.1779   -4.9337   19.3925 H           1 MOL       0.0274
     89 H42        49.9646   -3.7147   18.9707 H           1 MOL       0.0274
     90 H43        51.6925   -3.3483   18.7750 H           1 MOL       0.0274
     91 H44        51.9445   -7.0307   18.0043 H           1 MOL       0.0557
     92 H45        54.0486   -8.0420   17.4178 H           1 MOL       0.0599
     93 H46        55.5594   -6.9288   15.8785 H           1 MOL       0.0559
     94 H47        54.9435   -4.7874   14.9169 H           1 MOL       0.0599
     95 H48        52.8658   -3.7469   15.5002 H           1 MOL       0.0557
@<TRIPOS>BOND
     1     1     2   1
     2     2     3   1
     3     2     4   1
     4     4     5   1
     5     5     6  am
     6     6     7   2
     7     6     8   1
     8     8     9   1
     9     8    12   1
    10     9    10   1
    11     9    11   1
    12    12    13   1
    13    13    14   1
    14    14    15   1
    15    14    22   1
    16    15    16   1
    17    16    17  ar
    18    16    21  ar
    19    17    18  ar
    20    18    19  ar
    21    19    20  ar
    22    20    21  ar
    23    22    23  am
    24    23    24   2
    25    23    25   1
    26    25    26  ar
    27    25    27  ar
    28    26    36  ar
    29    27    28  ar
    30    28    29   1
    31    28    35  ar
    32    29    30   1
    33    29    31  am
    34    31    32   2
    35    31    33   2
    36    31    34   1
    37    35    36  ar
    38    36    37   1
    39    37    38   2
    40    37    39  am
    41    39    40   1
    42    40    41   1
    43    40    42   1
    44    42    43  ar
    45    42    47  ar
    46    43    44  ar
    47    44    45  ar
    48    45    46  ar
    49    46    47  ar
    50     1    48   1
    51     1    49   1
    52     1    50   1
    53     2    51   1
    54     3    52   1
    55     3    53   1
    56     3    54   1
    57     4    55   1
    58     4    56   1
    59     5    57   1
    60     8    58   1
    61     9    59   1
    62    10    60   1
    63    10    61   1
    64    10    62   1
    65    11    63   1
    66    12    64   1
    67    12    65   1
    68    13    66   1
    69    13    67   1
    70    14    68   1
    71    15    69   1
    72    15    70   1
    73    17    71   1
    74    18    72   1
    75    19    73   1
    76    20    74   1
    77    21    75   1
    78    22    76   1
    79    26    77   1
    80    27    78   1
    81    30    79   1
    82    30    80   1
    83    30    81   1
    84    34    82   1
    85    34    83   1
    86    34    84   1
    87    35    85   1
    88    39    86   1
    89    40    87   1
    90    41    88   1
    91    41    89   1
    92    41    90   1
    93    43    91   1
    94    44    92   1
    95    45    93   1
    96    46    94   1
    97    47    95   1
@<TRIPOS>SUBSTRUCTURE
     1  MOL      1

