@<TRIPOS>MOLECULE
4gid_ligand_069
    95    97
SMALL
GAST_HUCK
****
This file was generated by PARSER (from files_GN.cpp)

@<TRIPOS>ATOM
      1 CBK        38.6206   -2.5549   13.2152 C.3         1 MOL      -0.0608
      2 CBL        38.4700   -4.1025   13.3010 C.3         1 MOL      -0.0265
      3 CBM        37.1994   -4.5826   12.5450 C.3         1 MOL      -0.0608
      4 CBN        39.7509   -4.8867   12.8568 C.3         1 MOL       0.0334
      5 NBO        40.4145   -4.2947   11.7374 N.am        1 MOL      -0.2820
      6 CBP        41.7101   -3.9931   11.6556 C.2         1 MOL       0.2271
      7 OBV        42.4933   -4.2934   12.5563 O.2         1 MOL      -0.3908
      8 CBG        42.2244   -3.2905   10.4895 C.3         1 MOL       0.0928
      9 CBH        42.7255   -4.2781    9.3789 C.3         1 MOL       0.1121
     10 CBJ        41.5909   -4.9312    8.5325 C.3         1 MOL      -0.0314
     11 OBI        43.5959   -3.5739    8.4825 O.3         1 MOL      -0.3840
     12 NBF        43.1918   -2.2273   10.9264 N.4         1 MOL       0.2497
     13 CAX        44.6433   -2.4732   10.7383 C.3         1 MOL      -0.0062
     14 CAW        45.5988   -1.5465   11.5517 C.3         1 MOL       0.0906
     15 CAY        45.2976   -0.0098   11.5610 C.3         1 MOL       0.0089
     16 CAZ        44.7915    0.6202   10.3123 C.ar        1 MOL      -0.0406
     17 CBA        45.4687    0.4680    9.0765 C.ar        1 MOL      -0.0603
     18 CBB        44.9751    1.0634    7.9011 C.ar        1 MOL      -0.0686
     19 CBC        43.8139    1.8549    7.9464 C.ar        1 MOL      -0.0687
     20 CBD        43.1659    2.0694    9.1776 C.ar        1 MOL      -0.0686
     21 CBE        43.6366    1.4430   10.3428 C.ar        1 MOL      -0.0603
     22 NAV        46.9289   -1.7737   11.0477 N.am        1 MOL      -0.2761
     23 CAT        48.0135   -2.1542   11.7177 C.2         1 MOL       0.2026
     24 OAU        47.9730   -2.2972   12.9352 O.2         1 MOL      -0.3847
     25 CAP        49.2232   -2.2630   11.0392 C.ar        1 MOL       0.0397
     26 CAQ        50.3939   -1.6542   11.5482 C.ar        1 MOL      -0.0393
     27 CAO        49.2942   -2.9194    9.7854 C.ar        1 MOL      -0.0214
     28 CAN        50.5005   -2.9649    9.0558 C.ar        1 MOL       0.0754
     29 NAE        50.5524   -3.6394    7.8733 N.am        1 MOL      -0.1796
     30 CBT        50.0872   -3.0399    6.6596 C.3         1 MOL       0.0445
     31 SAB        51.0586   -5.2558    7.8640 S.o2        1 MOL       0.0593
     32 OAC        52.4840   -5.4022    7.1746 O.2         1 MOL      -0.1500
     33 OAD        51.2382   -5.7819    9.3557 O.2         1 MOL      -0.1500
     34 CAA        49.8962   -6.3970    7.0909 C.3         1 MOL       0.0790
     35 CAS        51.6300   -2.2916    9.5524 C.ar        1 MOL      -0.0214
     36 CAR        51.6006   -1.6236   10.8027 C.ar        1 MOL       0.0398
     37 CAL        52.7124   -0.9428   11.2814 C.2         1 MOL       0.2041
     38 OAM        52.9633   -0.9812   12.4843 O.2         1 MOL      -0.3845
     39 NBQ        53.5000   -0.2642   10.4567 N.am        1 MOL      -0.2723
     40 CBR        54.7236    0.4141   10.7975 C.3         1 MOL       0.0723
     41 CBS        55.1451    1.3125    9.6058 C.3         1 MOL      -0.0320
     42 CAI        55.8382   -0.5100   11.1848 C.ar        1 MOL      -0.0183
     43 CAH        55.8002   -1.9031   10.9127 C.ar        1 MOL      -0.0582
     44 CAG        56.8718   -2.7422   11.2706 C.ar        1 MOL      -0.0685
     45 CAF        58.0065   -2.2044   11.8998 C.ar        1 MOL      -0.0687
     46 CAK        58.0686   -0.8271   12.1725 C.ar        1 MOL      -0.0685
     47 CAJ        56.9938    0.0098   11.8200 C.ar        1 MOL      -0.0582
     48 H1         37.7545   -2.0625   13.6660 H           1 MOL       0.0233
     49 H2         38.6986   -2.2333   12.1737 H           1 MOL       0.0233
     50 H3         39.5182   -2.2347   13.7514 H           1 MOL       0.0233
     51 H4         38.3000   -4.3376   14.3593 H           1 MOL       0.0315
     52 H5         37.0338   -5.6479   12.7280 H           1 MOL       0.0233
     53 H6         37.3075   -4.4228   11.4711 H           1 MOL       0.0233
     54 H7         36.3174   -4.0423   12.9004 H           1 MOL       0.0233
     55 H8         39.4870   -5.9119   12.5849 H           1 MOL       0.0522
     56 H9         40.4196   -4.9537   13.7159 H           1 MOL       0.0522
     57 H10        39.8559   -4.0846   10.9620 H           1 MOL       0.1853
     58 H11        41.3992   -2.7301   10.0374 H           1 MOL       0.1125
     59 H12        43.2952   -5.0943    9.8480 H           1 MOL       0.0674
     60 H13        42.0212   -5.6718    7.8430 H           1 MOL       0.0258
     61 H14        41.0797   -4.1620    7.9411 H           1 MOL       0.0258
     62 H15        40.8531   -5.4387    9.1762 H           1 MOL       0.0258
     63 H16        43.7297   -4.1978    7.7383 H           1 MOL       0.2102
     64 H17        43.0254   -2.0312   11.9161 H           1 MOL       0.2037
     65 H18        42.9625   -1.3797   10.4026 H           1 MOL       0.2037
     66 H19        44.8631   -2.3476    9.6767 H           1 MOL       0.0839
     67 H20        44.8845   -3.5042   11.0111 H           1 MOL       0.0839
     68 H21        45.5403   -1.8751   12.5963 H           1 MOL       0.0632
     69 H22        46.2046    0.5294   11.8477 H           1 MOL       0.0450
     70 H23        44.5808    0.1685   12.3692 H           1 MOL       0.0450
     71 H24        46.3296   -0.0758    9.0189 H           1 MOL       0.0557
     72 H25        45.4659    0.9318    7.0129 H           1 MOL       0.0599
     73 H26        43.4633    2.2998    7.0967 H           1 MOL       0.0559
     74 H27        42.3473    2.6789    9.2235 H           1 MOL       0.0599
     75 H28        43.1365    1.6069   11.2214 H           1 MOL       0.0557
     76 H29        47.0604   -1.6037   10.0987 H           1 MOL       0.1852
     77 H30        50.3486   -1.1636   12.4477 H           1 MOL       0.0576
     78 H31        48.4671   -3.3868    9.4020 H           1 MOL       0.0566
     79 H32        49.8472   -1.9802    6.7821 H           1 MOL       0.0517
     80 H33        49.1861   -3.5523    6.3223 H           1 MOL       0.0517
     81 H34        50.8499   -3.1239    5.8840 H           1 MOL       0.0517
     82 H35        50.2752   -7.4153    7.1783 H           1 MOL       0.0487
     83 H36        49.7836   -6.1483    6.0363 H           1 MOL       0.0487
     84 H37        48.9271   -6.3275    7.5852 H           1 MOL       0.0487
     85 H38        52.4936   -2.3131    9.0024 H           1 MOL       0.0566
     86 H39        53.2289   -0.2261    9.5250 H           1 MOL       0.1875
     87 H40        54.5067    1.0827   11.6395 H           1 MOL       0.0716
     88 H41        56.0216    1.9107    9.8647 H           1 MOL       0.0274
     89 H42        54.3350    1.9976    9.3472 H           1 MOL       0.0274
     90 H43        55.3819    0.7071    8.7291 H           1 MOL       0.0274
     91 H44        54.9972   -2.3234   10.4418 H           1 MOL       0.0557
     92 H45        56.8239   -3.7446   11.0695 H           1 MOL       0.0599
     93 H46        58.7885   -2.8137   12.1543 H           1 MOL       0.0559
     94 H47        58.8956   -0.4352   12.6294 H           1 MOL       0.0599
     95 H48        57.0623    1.0092   12.0268 H           1 MOL       0.0557
@<TRIPOS>BOND
     1     1     2   1
     2     2     3   1
     3     2     4   1
     4     4     5   1
     5     5     6  am
     6     6     7   2
     7     6     8   1
     8     8     9   1
     9     8    12   1
    10     9    10   1
    11     9    11   1
    12    12    13   1
    13    13    14   1
    14    14    15   1
    15    14    22   1
    16    15    16   1
    17    16    17  ar
    18    16    21  ar
    19    17    18  ar
    20    18    19  ar
    21    19    20  ar
    22    20    21  ar
    23    22    23  am
    24    23    24   2
    25    23    25   1
    26    25    26  ar
    27    25    27  ar
    28    26    36  ar
    29    27    28  ar
    30    28    29   1
    31    28    35  ar
    32    29    30   1
    33    29    31  am
    34    31    32   2
    35    31    33   2
    36    31    34   1
    37    35    36  ar
    38    36    37   1
    39    37    38   2
    40    37    39  am
    41    39    40   1
    42    40    41   1
    43    40    42   1
    44    42    43  ar
    45    42    47  ar
    46    43    44  ar
    47    44    45  ar
    48    45    46  ar
    49    46    47  ar
    50     1    48   1
    51     1    49   1
    52     1    50   1
    53     2    51   1
    54     3    52   1
    55     3    53   1
    56     3    54   1
    57     4    55   1
    58     4    56   1
    59     5    57   1
    60     8    58   1
    61     9    59   1
    62    10    60   1
    63    10    61   1
    64    10    62   1
    65    11    63   1
    66    12    64   1
    67    12    65   1
    68    13    66   1
    69    13    67   1
    70    14    68   1
    71    15    69   1
    72    15    70   1
    73    17    71   1
    74    18    72   1
    75    19    73   1
    76    20    74   1
    77    21    75   1
    78    22    76   1
    79    26    77   1
    80    27    78   1
    81    30    79   1
    82    30    80   1
    83    30    81   1
    84    34    82   1
    85    34    83   1
    86    34    84   1
    87    35    85   1
    88    39    86   1
    89    40    87   1
    90    41    88   1
    91    41    89   1
    92    41    90   1
    93    43    91   1
    94    44    92   1
    95    45    93   1
    96    46    94   1
    97    47    95   1
@<TRIPOS>SUBSTRUCTURE
     1  MOL      1

