@<TRIPOS>MOLECULE
4gid_ligand_080
    95    97
SMALL
GAST_HUCK
****
This file was generated by PARSER (from files_GN.cpp)

@<TRIPOS>ATOM
      1 CBK        41.2751   -8.0529   10.3633 C.3         1 MOL      -0.0608
      2 CBL        41.7444   -7.6280    8.9441 C.3         1 MOL      -0.0265
      3 CBM        40.5948   -6.9512    8.1527 C.3         1 MOL      -0.0608
      4 CBN        43.0493   -6.7751    8.9796 C.3         1 MOL       0.0334
      5 NBO        42.9729   -5.5910    9.7809 N.am        1 MOL      -0.2820
      6 CBP        42.4700   -4.4121    9.4179 C.2         1 MOL       0.2271
      7 OBV        42.0389   -4.2429    8.2880 O.2         1 MOL      -0.3908
      8 CBG        42.3444   -3.3297   10.4015 C.3         1 MOL       0.0928
      9 CBH        43.7367   -2.6940   10.7241 C.3         1 MOL       0.1121
     10 CBJ        43.6560   -1.3743   11.5293 C.3         1 MOL      -0.0314
     11 OBI        44.5812   -3.5889   11.4479 O.3         1 MOL      -0.3840
     12 NBF        41.6442   -3.8068   11.6342 N.4         1 MOL       0.2497
     13 CAX        40.2105   -4.1629   11.4785 C.3         1 MOL      -0.0062
     14 CAW        39.6210   -4.9712   12.6779 C.3         1 MOL       0.0906
     15 CAY        38.5118   -6.0225   12.2856 C.3         1 MOL       0.0089
     16 CAZ        37.7461   -5.7937   11.0250 C.ar        1 MOL      -0.0406
     17 CBA        36.7774   -4.7660   10.9467 C.ar        1 MOL      -0.0603
     18 CBB        36.1041   -4.5021    9.7379 C.ar        1 MOL      -0.0686
     19 CBC        36.3763   -5.2790    8.5980 C.ar        1 MOL      -0.0687
     20 CBD        37.2946   -6.3396    8.6753 C.ar        1 MOL      -0.0686
     21 CBE        37.9802   -6.5903    9.8767 C.ar        1 MOL      -0.0603
     22 NAV        39.0970   -4.0996   13.6903 N.am        1 MOL      -0.2761
     23 CAT        39.7604   -3.3420   14.5665 C.2         1 MOL       0.2026
     24 OAU        40.9783   -3.2710   14.4749 O.2         1 MOL      -0.3847
     25 CAP        39.0945   -2.6440   15.5892 C.ar        1 MOL       0.0397
     26 CAQ        39.7973   -1.8063   16.4926 C.ar        1 MOL      -0.0393
     27 CAO        37.6987   -2.7614   15.7837 C.ar        1 MOL      -0.0214
     28 CAN        36.9829   -2.0161   16.7483 C.ar        1 MOL       0.0754
     29 NAE        35.6094   -2.1518   16.8749 N.am        1 MOL      -0.1796
     30 CBT        34.9500   -2.1322   18.1533 C.3         1 MOL       0.0445
     31 SAB        34.6337   -2.3068   15.4902 S.o2        1 MOL       0.0593
     32 OAC        35.0085   -1.1541   14.4618 O.2         1 MOL      -0.1500
     33 OAD        34.8718   -3.7081   14.7739 O.2         1 MOL      -0.1500
     34 CAA        32.8464   -2.2329   15.7295 C.3         1 MOL       0.0790
     35 CAS        37.7272   -1.1484   17.5840 C.ar        1 MOL      -0.0214
     36 CAR        39.1350   -1.0648   17.4994 C.ar        1 MOL       0.0398
     37 CAL        39.8637   -0.2846   18.3839 C.2         1 MOL       0.2041
     38 OAM        39.4383    0.8257   18.6747 O.2         1 MOL      -0.3845
     39 NBQ        40.9411   -0.7977   18.9699 N.am        1 MOL      -0.2723
     40 CBR        41.8317   -0.1657   19.9068 C.3         1 MOL       0.0723
     41 CBS        42.6790   -1.2562   20.6167 C.3         1 MOL      -0.0320
     42 CAI        41.1394    0.7052   20.9073 C.ar        1 MOL      -0.0183
     43 CAH        41.5397    2.0523   21.0902 C.ar        1 MOL      -0.0582
     44 CAG        40.8388    2.9026   21.9634 C.ar        1 MOL      -0.0685
     45 CAF        39.7260    2.4172   22.6736 C.ar        1 MOL      -0.0687
     46 CAK        39.3251    1.0786   22.5188 C.ar        1 MOL      -0.0685
     47 CAJ        40.0325    0.2266   21.6486 C.ar        1 MOL      -0.0582
     48 H1         40.3917   -8.6937   10.2905 H           1 MOL       0.0233
     49 H2         41.0212   -7.1788   10.9626 H           1 MOL       0.0233
     50 H3         42.0619   -8.6117   10.8756 H           1 MOL       0.0233
     51 H4         41.9882   -8.5511    8.4049 H           1 MOL       0.0315
     52 H5         40.9309   -6.6650    7.1491 H           1 MOL       0.0233
     53 H6         40.2254   -6.0652    8.6675 H           1 MOL       0.0233
     54 H7         39.7608   -7.6539    8.0610 H           1 MOL       0.0233
     55 H8         43.3878   -6.5390    7.9654 H           1 MOL       0.0522
     56 H9         43.8248   -7.4001    9.4246 H           1 MOL       0.0522
     57 H10        43.2841   -5.6724   10.6971 H           1 MOL       0.1853
     58 H11        41.7353   -2.5295    9.9642 H           1 MOL       0.1125
     59 H12        44.2410   -2.4568    9.7815 H           1 MOL       0.0674
     60 H13        44.6565   -0.9486   11.6399 H           1 MOL       0.0258
     61 H14        43.2454   -1.5473   12.5235 H           1 MOL       0.0258
     62 H15        43.0298   -0.6454   11.0091 H           1 MOL       0.0258
     63 H16        44.9785   -4.1697   10.7683 H           1 MOL       0.2102
     64 H17        41.7111   -3.0784   12.3442 H           1 MOL       0.2037
     65 H18        42.1304   -4.6405   11.9752 H           1 MOL       0.2037
     66 H19        40.1137   -4.7712   10.5797 H           1 MOL       0.0839
     67 H20        39.6336   -3.2458   11.3344 H           1 MOL       0.0839
     68 H21        40.4362   -5.5510   13.1253 H           1 MOL       0.0632
     69 H22        37.7693   -6.0951   13.0836 H           1 MOL       0.0450
     70 H23        38.9869   -7.0073   12.2482 H           1 MOL       0.0450
     71 H24        36.5649   -4.1973   11.7653 H           1 MOL       0.0557
     72 H25        35.4194   -3.7468    9.6811 H           1 MOL       0.0599
     73 H26        35.9015   -5.0797    7.7128 H           1 MOL       0.0559
     74 H27        37.4708   -6.9252    7.8574 H           1 MOL       0.0599
     75 H28        38.6612   -7.3541    9.8942 H           1 MOL       0.0557
     76 H29        38.1361   -4.1339   13.7856 H           1 MOL       0.1852
     77 H30        40.8127   -1.7106   16.3984 H           1 MOL       0.0576
     78 H31        37.1797   -3.4370   15.2308 H           1 MOL       0.0566
     79 H32        35.6512   -2.1567   18.9904 H           1 MOL       0.0517
     80 H33        34.3051   -3.0060   18.2507 H           1 MOL       0.0517
     81 H34        34.3438   -1.2290   18.2446 H           1 MOL       0.0517
     82 H35        32.3482   -2.1583   14.7630 H           1 MOL       0.0487
     83 H36        32.5814   -1.3735   16.3432 H           1 MOL       0.0487
     84 H37        32.5130   -3.1456   16.2205 H           1 MOL       0.0487
     85 H38        37.2324   -0.5944   18.2875 H           1 MOL       0.0566
     86 H39        41.1561   -1.7133   18.7320 H           1 MOL       0.1875
     87 H40        42.5335    0.4270   19.3159 H           1 MOL       0.0716
     88 H41        43.3905   -0.8002   21.3135 H           1 MOL       0.0274
     89 H42        43.2477   -1.8349   19.8824 H           1 MOL       0.0274
     90 H43        42.0406   -1.9482   21.1758 H           1 MOL       0.0274
     91 H44        42.3370    2.4330   20.5748 H           1 MOL       0.0557
     92 H45        41.1297    3.8784   22.0745 H           1 MOL       0.0599
     93 H46        39.2034    3.0417   23.2962 H           1 MOL       0.0559
     94 H47        38.5146    0.7269   23.0336 H           1 MOL       0.0599
     95 H48        39.7144   -0.7376   21.5379 H           1 MOL       0.0557
@<TRIPOS>BOND
     1     1     2   1
     2     2     3   1
     3     2     4   1
     4     4     5   1
     5     5     6  am
     6     6     7   2
     7     6     8   1
     8     8     9   1
     9     8    12   1
    10     9    10   1
    11     9    11   1
    12    12    13   1
    13    13    14   1
    14    14    15   1
    15    14    22   1
    16    15    16   1
    17    16    17  ar
    18    16    21  ar
    19    17    18  ar
    20    18    19  ar
    21    19    20  ar
    22    20    21  ar
    23    22    23  am
    24    23    24   2
    25    23    25   1
    26    25    26  ar
    27    25    27  ar
    28    26    36  ar
    29    27    28  ar
    30    28    29   1
    31    28    35  ar
    32    29    30   1
    33    29    31  am
    34    31    32   2
    35    31    33   2
    36    31    34   1
    37    35    36  ar
    38    36    37   1
    39    37    38   2
    40    37    39  am
    41    39    40   1
    42    40    41   1
    43    40    42   1
    44    42    43  ar
    45    42    47  ar
    46    43    44  ar
    47    44    45  ar
    48    45    46  ar
    49    46    47  ar
    50     1    48   1
    51     1    49   1
    52     1    50   1
    53     2    51   1
    54     3    52   1
    55     3    53   1
    56     3    54   1
    57     4    55   1
    58     4    56   1
    59     5    57   1
    60     8    58   1
    61     9    59   1
    62    10    60   1
    63    10    61   1
    64    10    62   1
    65    11    63   1
    66    12    64   1
    67    12    65   1
    68    13    66   1
    69    13    67   1
    70    14    68   1
    71    15    69   1
    72    15    70   1
    73    17    71   1
    74    18    72   1
    75    19    73   1
    76    20    74   1
    77    21    75   1
    78    22    76   1
    79    26    77   1
    80    27    78   1
    81    30    79   1
    82    30    80   1
    83    30    81   1
    84    34    82   1
    85    34    83   1
    86    34    84   1
    87    35    85   1
    88    39    86   1
    89    40    87   1
    90    41    88   1
    91    41    89   1
    92    41    90   1
    93    43    91   1
    94    44    92   1
    95    45    93   1
    96    46    94   1
    97    47    95   1
@<TRIPOS>SUBSTRUCTURE
     1  MOL      1

