@<TRIPOS>MOLECULE
4gid_ligand_082
    95    97
SMALL
GAST_HUCK
****
This file was generated by PARSER (from files_GN.cpp)

@<TRIPOS>ATOM
      1 CBK        41.6724   -8.0695    8.7021 C.3         1 MOL      -0.0608
      2 CBL        41.8906   -6.6093    8.1995 C.3         1 MOL      -0.0265
      3 CBM        40.6141   -5.7673    8.4605 C.3         1 MOL      -0.0608
      4 CBN        43.2258   -5.9984    8.7621 C.3         1 MOL       0.0334
      5 NBO        43.1373   -4.6307    9.1863 N.am        1 MOL      -0.2820
      6 CBP        43.2144   -4.1593   10.4302 C.2         1 MOL       0.2271
      7 OBV        43.4898   -4.8871   11.3781 O.2         1 MOL      -0.3908
      8 CBG        42.9516   -2.7501   10.6976 C.3         1 MOL       0.0928
      9 CBH        44.1745   -1.9524   11.3001 C.3         1 MOL       0.1121
     10 CBJ        45.5927   -2.3486   10.8007 C.3         1 MOL      -0.0314
     11 OBI        44.0339   -0.5505   11.0406 O.3         1 MOL      -0.3840
     12 NBF        41.7750   -2.5652   11.6062 N.4         1 MOL       0.2497
     13 CAX        40.5361   -3.3948   11.4540 C.3         1 MOL      -0.0062
     14 CAW        40.2726   -4.3488   12.6738 C.3         1 MOL       0.0906
     15 CAY        40.4514   -5.8817   12.3916 C.3         1 MOL       0.0089
     16 CAZ        39.4066   -6.7196   11.7201 C.ar        1 MOL      -0.0406
     17 CBA        39.6010   -8.1239   11.6771 C.ar        1 MOL      -0.0603
     18 CBB        38.6706   -8.9788   11.0591 C.ar        1 MOL      -0.0686
     19 CBC        37.5280   -8.4407   10.4440 C.ar        1 MOL      -0.0687
     20 CBD        37.3227   -7.0523   10.4501 C.ar        1 MOL      -0.0686
     21 CBE        38.2571   -6.2000   11.0723 C.ar        1 MOL      -0.0603
     22 NAV        38.9619   -4.1436   13.2251 N.am        1 MOL      -0.2761
     23 CAT        38.6019   -3.4946   14.3333 C.2         1 MOL       0.2026
     24 OAU        39.4279   -2.8308   14.9515 O.2         1 MOL      -0.3847
     25 CAP        37.2738   -3.5655   14.7708 C.ar        1 MOL       0.0397
     26 CAQ        36.7437   -2.6195   15.6765 C.ar        1 MOL      -0.0393
     27 CAO        36.4229   -4.6187   14.3472 C.ar        1 MOL      -0.0214
     28 CAN        35.0645   -4.7076   14.7183 C.ar        1 MOL       0.0754
     29 NAE        34.2574   -5.7537   14.2680 N.am        1 MOL      -0.1796
     30 CBT        34.5058   -6.4605   13.0305 C.3         1 MOL       0.0445
     31 SAB        32.9848   -6.3602   15.2121 S.o2        1 MOL       0.0593
     32 OAC        32.8287   -7.9335   15.0025 O.2         1 MOL      -0.1500
     33 OAD        33.3096   -6.2238   16.7633 O.2         1 MOL      -0.1500
     34 CAA        31.3988   -5.5790   14.8455 C.3         1 MOL       0.0790
     35 CAS        34.5768   -3.6992   15.5823 C.ar        1 MOL      -0.0214
     36 CAR        35.3965   -2.6683   16.1149 C.ar        1 MOL       0.0398
     37 CAL        34.8873   -1.7667   17.0665 C.2         1 MOL       0.2041
     38 OAM        33.6876   -1.4977   17.0730 O.2         1 MOL      -0.3845
     39 NBQ        35.6469   -1.2664   18.0406 N.am        1 MOL      -0.2723
     40 CBR        35.1976   -0.5181   19.1875 C.3         1 MOL       0.0723
     41 CBS        36.3914    0.2912   19.7538 C.3         1 MOL      -0.0320
     42 CAI        34.5827   -1.3746   20.2567 C.ar        1 MOL      -0.0183
     43 CAH        33.7076   -0.7930   21.2080 C.ar        1 MOL      -0.0582
     44 CAG        33.1566   -1.5630   22.2471 C.ar        1 MOL      -0.0685
     45 CAF        33.4614   -2.9308   22.3473 C.ar        1 MOL      -0.0687
     46 CAK        34.3234   -3.5269   21.4108 C.ar        1 MOL      -0.0685
     47 CAJ        34.8867   -2.7551   20.3801 C.ar        1 MOL      -0.0582
     48 H1         40.7632   -8.4967    8.2755 H           1 MOL       0.0233
     49 H2         41.5911   -8.0912    9.7893 H           1 MOL       0.0233
     50 H3         42.5169   -8.6927    8.4038 H           1 MOL       0.0233
     51 H4         41.9804   -6.6479    7.1101 H           1 MOL       0.0315
     52 H5         40.7058   -4.7788    7.9995 H           1 MOL       0.0233
     53 H6         40.4753   -5.6475    9.5359 H           1 MOL       0.0233
     54 H7         39.7264   -6.2524    8.0405 H           1 MOL       0.0233
     55 H8         43.9711   -6.0270    7.9610 H           1 MOL       0.0522
     56 H9         43.6124   -6.6195    9.5736 H           1 MOL       0.0522
     57 H10        42.9807   -3.9825    8.4783 H           1 MOL       0.1853
     58 H11        42.6797   -2.2700    9.7508 H           1 MOL       0.1125
     59 H12        44.1815   -2.0661   12.3911 H           1 MOL       0.0674
     60 H13        46.3436   -1.6650   11.2127 H           1 MOL       0.0258
     61 H14        45.6383   -2.3132    9.7088 H           1 MOL       0.0258
     62 H15        45.8528   -3.3555   11.1373 H           1 MOL       0.0258
     63 H16        43.1942   -0.4349   10.5481 H           1 MOL       0.2102
     64 H17        41.4678   -1.5940   11.4834 H           1 MOL       0.2037
     65 H18        42.1035   -2.6563   12.5718 H           1 MOL       0.2037
     66 H19        40.5495   -3.9521   10.5171 H           1 MOL       0.0839
     67 H20        39.7048   -2.6821   11.3740 H           1 MOL       0.0839
     68 H21        41.0178   -4.0916   13.4366 H           1 MOL       0.0632
     69 H22        40.6148   -6.3333   13.3729 H           1 MOL       0.0450
     70 H23        41.3802   -6.0273   11.8352 H           1 MOL       0.0450
     71 H24        40.4289   -8.5449   12.1156 H           1 MOL       0.0557
     72 H25        38.8212   -9.9925   11.0495 H           1 MOL       0.0599
     73 H26        36.8543   -9.0529    9.9800 H           1 MOL       0.0559
     74 H27        36.5027   -6.6553    9.9827 H           1 MOL       0.0599
     75 H28        38.0915   -5.1981   11.0248 H           1 MOL       0.0557
     76 H29        38.2417   -4.5621   12.7293 H           1 MOL       0.1852
     77 H30        37.3495   -1.8607   15.9916 H           1 MOL       0.0576
     78 H31        36.8180   -5.3693   13.7755 H           1 MOL       0.0566
     79 H32        35.1603   -5.9049   12.3517 H           1 MOL       0.0517
     80 H33        33.5657   -6.6287   12.4927 H           1 MOL       0.0517
     81 H34        34.9651   -7.4320   13.2398 H           1 MOL       0.0517
     82 H35        30.6015   -6.0966   15.3794 H           1 MOL       0.0487
     83 H36        31.2085   -5.6331   13.7728 H           1 MOL       0.0487
     84 H37        31.4218   -4.5326   15.1517 H           1 MOL       0.0487
     85 H38        33.5944   -3.7335   15.8508 H           1 MOL       0.0566
     86 H39        36.5921   -1.4875   18.0219 H           1 MOL       0.1875
     87 H40        34.4601    0.2091   18.8299 H           1 MOL       0.0716
     88 H41        36.0651    0.9325   20.5741 H           1 MOL       0.0274
     89 H42        36.8169    0.9240   18.9738 H           1 MOL       0.0274
     90 H43        37.1697   -0.3812   20.1209 H           1 MOL       0.0274
     91 H44        33.4788    0.2025   21.1549 H           1 MOL       0.0557
     92 H45        32.5375   -1.1281   22.9330 H           1 MOL       0.0599
     93 H46        33.0626   -3.4912   23.1063 H           1 MOL       0.0559
     94 H47        34.5469   -4.5195   21.4860 H           1 MOL       0.0599
     95 H48        35.5261   -3.2087   19.7268 H           1 MOL       0.0557
@<TRIPOS>BOND
     1     1     2   1
     2     2     3   1
     3     2     4   1
     4     4     5   1
     5     5     6  am
     6     6     7   2
     7     6     8   1
     8     8     9   1
     9     8    12   1
    10     9    10   1
    11     9    11   1
    12    12    13   1
    13    13    14   1
    14    14    15   1
    15    14    22   1
    16    15    16   1
    17    16    17  ar
    18    16    21  ar
    19    17    18  ar
    20    18    19  ar
    21    19    20  ar
    22    20    21  ar
    23    22    23  am
    24    23    24   2
    25    23    25   1
    26    25    26  ar
    27    25    27  ar
    28    26    36  ar
    29    27    28  ar
    30    28    29   1
    31    28    35  ar
    32    29    30   1
    33    29    31  am
    34    31    32   2
    35    31    33   2
    36    31    34   1
    37    35    36  ar
    38    36    37   1
    39    37    38   2
    40    37    39  am
    41    39    40   1
    42    40    41   1
    43    40    42   1
    44    42    43  ar
    45    42    47  ar
    46    43    44  ar
    47    44    45  ar
    48    45    46  ar
    49    46    47  ar
    50     1    48   1
    51     1    49   1
    52     1    50   1
    53     2    51   1
    54     3    52   1
    55     3    53   1
    56     3    54   1
    57     4    55   1
    58     4    56   1
    59     5    57   1
    60     8    58   1
    61     9    59   1
    62    10    60   1
    63    10    61   1
    64    10    62   1
    65    11    63   1
    66    12    64   1
    67    12    65   1
    68    13    66   1
    69    13    67   1
    70    14    68   1
    71    15    69   1
    72    15    70   1
    73    17    71   1
    74    18    72   1
    75    19    73   1
    76    20    74   1
    77    21    75   1
    78    22    76   1
    79    26    77   1
    80    27    78   1
    81    30    79   1
    82    30    80   1
    83    30    81   1
    84    34    82   1
    85    34    83   1
    86    34    84   1
    87    35    85   1
    88    39    86   1
    89    40    87   1
    90    41    88   1
    91    41    89   1
    92    41    90   1
    93    43    91   1
    94    44    92   1
    95    45    93   1
    96    46    94   1
    97    47    95   1
@<TRIPOS>SUBSTRUCTURE
     1  MOL      1

