@<TRIPOS>MOLECULE
4gid_ligand_013
    95    97
SMALL
GAST_HUCK
****
This file was generated by PARSER (from files_GN.cpp)

@<TRIPOS>ATOM
      1 CBK        36.6891    2.8285   22.9702 C.3         1 MOL      -0.0608
      2 CBL        35.1794    2.5234   22.7435 C.3         1 MOL      -0.0265
      3 CBM        34.4231    3.8288   22.3629 C.3         1 MOL      -0.0608
      4 CBN        34.8723    1.3477   21.7439 C.3         1 MOL       0.0334
      5 NBO        36.0265    0.7843   21.0988 N.am        1 MOL      -0.2820
      6 CBP        36.1918    0.4616   19.8186 C.2         1 MOL       0.2271
      7 OBV        35.2505    0.5392   19.0404 O.2         1 MOL      -0.3908
      8 CBG        37.4836   -0.0848   19.3790 C.3         1 MOL       0.0928
      9 CBH        38.6765    0.8479   19.7735 C.3         1 MOL       0.1121
     10 CBJ        40.0530    0.1412   19.6935 C.3         1 MOL      -0.0314
     11 OBI        38.6975    1.9984   18.9292 O.3         1 MOL      -0.3840
     12 NBF        37.5207   -0.3831   17.8967 N.4         1 MOL       0.2497
     13 CAX        37.6246   -1.8066   17.4920 C.3         1 MOL      -0.0062
     14 CAW        37.3448   -2.0742   15.9636 C.3         1 MOL       0.0906
     15 CAY        36.5818   -3.4410   15.7563 C.3         1 MOL       0.0089
     16 CAZ        35.0896   -3.4793   15.5782 C.ar        1 MOL      -0.0406
     17 CBA        34.2493   -2.3444   15.4565 C.ar        1 MOL      -0.0603
     18 CBB        32.8687   -2.4810   15.2058 C.ar        1 MOL      -0.0686
     19 CBC        32.3036   -3.7565   15.0663 C.ar        1 MOL      -0.0687
     20 CBD        33.1063   -4.8968   15.2179 C.ar        1 MOL      -0.0686
     21 CBE        34.4815   -4.7595   15.4786 C.ar        1 MOL      -0.0603
     22 NAV        38.5483   -2.0048   15.1552 N.am        1 MOL      -0.2761
     23 CAT        38.5947   -2.1075   13.8212 C.2         1 MOL       0.2026
     24 OAU        37.5731   -2.2597   13.1662 O.2         1 MOL      -0.3847
     25 CAP        39.7915   -2.0477   13.1122 C.ar        1 MOL       0.0397
     26 CAQ        40.6931   -0.9842   13.3162 C.ar        1 MOL      -0.0393
     27 CAO        40.1007   -3.0102   12.1214 C.ar        1 MOL      -0.0214
     28 CAN        41.3019   -2.9398   11.3822 C.ar        1 MOL       0.0754
     29 NAE        41.6341   -3.9348   10.4998 N.am        1 MOL      -0.1796
     30 CBT        41.7231   -3.7022    9.0857 C.3         1 MOL       0.0445
     31 SAB        42.0537   -5.4527   11.1208 S.o2        1 MOL       0.0593
     32 OAC        43.1057   -6.1745   10.1712 O.2         1 MOL      -0.1500
     33 OAD        42.8688   -5.2324   12.4682 O.2         1 MOL      -0.1500
     34 CAA        40.6859   -6.5783   11.4530 C.3         1 MOL       0.0790
     35 CAS        42.1713   -1.8474   11.5902 C.ar        1 MOL      -0.0214
     36 CAR        41.8787   -0.8380   12.5440 C.ar        1 MOL       0.0398
     37 CAL        42.6987    0.2851   12.7165 C.2         1 MOL       0.2041
     38 OAM        42.1873    1.3273   13.1019 O.2         1 MOL      -0.3845
     39 NBQ        44.0111    0.2634   12.4870 N.am        1 MOL      -0.2723
     40 CBR        44.9360    1.3573   12.6886 C.3         1 MOL       0.0723
     41 CBS        44.9401    2.2375   11.4113 C.3         1 MOL      -0.0320
     42 CAI        46.3300    0.9550   13.0725 C.ar        1 MOL      -0.0183
     43 CAH        47.2212    1.9491   13.5531 C.ar        1 MOL      -0.0582
     44 CAG        48.5408    1.6307   13.9254 C.ar        1 MOL      -0.0685
     45 CAF        48.9940    0.3058   13.8273 C.ar        1 MOL      -0.0687
     46 CAK        48.1268   -0.6999   13.3644 C.ar        1 MOL      -0.0685
     47 CAJ        46.8095   -0.3780   12.9913 C.ar        1 MOL      -0.0582
     48 H1         36.8197    3.6171   23.7161 H           1 MOL       0.0233
     49 H2         37.1594    3.1530   22.0397 H           1 MOL       0.0233
     50 H3         37.2033    1.9369   23.3346 H           1 MOL       0.0233
     51 H4         34.7862    2.2282   23.7236 H           1 MOL       0.0315
     52 H5         33.3513    3.6360   22.2884 H           1 MOL       0.0233
     53 H6         34.7769    4.2101   21.4034 H           1 MOL       0.0233
     54 H7         34.5712    4.5997   23.1223 H           1 MOL       0.0233
     55 H8         34.1286    1.6599   21.0038 H           1 MOL       0.0522
     56 H9         34.4168    0.5272   22.3044 H           1 MOL       0.0522
     57 H10        36.7772    0.6021   21.6842 H           1 MOL       0.1853
     58 H11        37.6058   -1.0136   19.9464 H           1 MOL       0.1125
     59 H12        38.5662    1.1943   20.8060 H           1 MOL       0.0674
     60 H13        40.8399    0.7949   20.0818 H           1 MOL       0.0258
     61 H14        40.2929   -0.1149   18.6617 H           1 MOL       0.0258
     62 H15        40.0474   -0.7708   20.2953 H           1 MOL       0.0258
     63 H16        37.9332    2.5477   19.2145 H           1 MOL       0.2102
     64 H17        38.3075    0.1196   17.4747 H           1 MOL       0.2037
     65 H18        36.6679   -0.0135   17.4788 H           1 MOL       0.2037
     66 H19        36.8877   -2.3494   18.0941 H           1 MOL       0.0839
     67 H20        38.6123   -2.1911   17.7642 H           1 MOL       0.0839
     68 H21        36.7388   -1.2495   15.5998 H           1 MOL       0.0632
     69 H22        36.8228   -4.0950   16.5970 H           1 MOL       0.0450
     70 H23        36.9895   -3.9513   14.8788 H           1 MOL       0.0450
     71 H24        34.6053   -1.3966   15.5343 H           1 MOL       0.0557
     72 H25        32.2769   -1.6536   15.1287 H           1 MOL       0.0599
     73 H26        31.3043   -3.8534   14.8578 H           1 MOL       0.0559
     74 H27        32.6883   -5.8283   15.1264 H           1 MOL       0.0599
     75 H28        35.0410   -5.6090   15.5834 H           1 MOL       0.0557
     76 H29        39.3929   -1.8694   15.6191 H           1 MOL       0.1852
     77 H30        40.4623   -0.2750   14.0223 H           1 MOL       0.0576
     78 H31        39.4543   -3.7841   11.9422 H           1 MOL       0.0566
     79 H32        41.3652   -2.7068    8.8062 H           1 MOL       0.0517
     80 H33        41.1182   -4.4358    8.5481 H           1 MOL       0.0517
     81 H34        42.7598   -3.7938    8.7527 H           1 MOL       0.0517
     82 H35        41.0750   -7.5538   11.7478 H           1 MOL       0.0487
     83 H36        40.0751   -6.6895   10.5566 H           1 MOL       0.0487
     84 H37        40.0726   -6.1813   12.2625 H           1 MOL       0.0487
     85 H38        43.0173   -1.7826   11.0208 H           1 MOL       0.0566
     86 H39        44.3832   -0.5654   12.1577 H           1 MOL       0.1875
     87 H40        44.5667    1.9766   13.5145 H           1 MOL       0.0716
     88 H41        45.5809    3.1125   11.5393 H           1 MOL       0.0274
     89 H42        43.9308    2.5939   11.1981 H           1 MOL       0.0274
     90 H43        45.2977    1.6652   10.5527 H           1 MOL       0.0274
     91 H44        46.9141    2.9209   13.6429 H           1 MOL       0.0557
     92 H45        49.1655    2.3629   14.2687 H           1 MOL       0.0599
     93 H46        49.9521    0.0709   14.0975 H           1 MOL       0.0559
     94 H47        48.4547   -1.6659   13.3016 H           1 MOL       0.0599
     95 H48        46.2107   -1.1340   12.6579 H           1 MOL       0.0557
@<TRIPOS>BOND
     1     1     2   1
     2     2     3   1
     3     2     4   1
     4     4     5   1
     5     5     6  am
     6     6     7   2
     7     6     8   1
     8     8     9   1
     9     8    12   1
    10     9    10   1
    11     9    11   1
    12    12    13   1
    13    13    14   1
    14    14    15   1
    15    14    22   1
    16    15    16   1
    17    16    17  ar
    18    16    21  ar
    19    17    18  ar
    20    18    19  ar
    21    19    20  ar
    22    20    21  ar
    23    22    23  am
    24    23    24   2
    25    23    25   1
    26    25    26  ar
    27    25    27  ar
    28    26    36  ar
    29    27    28  ar
    30    28    29   1
    31    28    35  ar
    32    29    30   1
    33    29    31  am
    34    31    32   2
    35    31    33   2
    36    31    34   1
    37    35    36  ar
    38    36    37   1
    39    37    38   2
    40    37    39  am
    41    39    40   1
    42    40    41   1
    43    40    42   1
    44    42    43  ar
    45    42    47  ar
    46    43    44  ar
    47    44    45  ar
    48    45    46  ar
    49    46    47  ar
    50     1    48   1
    51     1    49   1
    52     1    50   1
    53     2    51   1
    54     3    52   1
    55     3    53   1
    56     3    54   1
    57     4    55   1
    58     4    56   1
    59     5    57   1
    60     8    58   1
    61     9    59   1
    62    10    60   1
    63    10    61   1
    64    10    62   1
    65    11    63   1
    66    12    64   1
    67    12    65   1
    68    13    66   1
    69    13    67   1
    70    14    68   1
    71    15    69   1
    72    15    70   1
    73    17    71   1
    74    18    72   1
    75    19    73   1
    76    20    74   1
    77    21    75   1
    78    22    76   1
    79    26    77   1
    80    27    78   1
    81    30    79   1
    82    30    80   1
    83    30    81   1
    84    34    82   1
    85    34    83   1
    86    34    84   1
    87    35    85   1
    88    39    86   1
    89    40    87   1
    90    41    88   1
    91    41    89   1
    92    41    90   1
    93    43    91   1
    94    44    92   1
    95    45    93   1
    96    46    94   1
    97    47    95   1
@<TRIPOS>SUBSTRUCTURE
     1  MOL      1

