@<TRIPOS>MOLECULE
4gid_ligand_085
    95    97
SMALL
GAST_HUCK
****
This file was generated by PARSER (from files_GN.cpp)

@<TRIPOS>ATOM
      1 CBK        42.3237   -5.3824   11.5992 C.3         1 MOL      -0.0608
      2 CBL        41.3640   -4.4973   10.7586 C.3         1 MOL      -0.0265
      3 CBM        40.6157   -3.4820   11.6654 C.3         1 MOL      -0.0608
      4 CBN        42.0762   -3.8007    9.5575 C.3         1 MOL       0.0334
      5 NBO        42.9809   -2.7663    9.9596 N.am        1 MOL      -0.2820
      6 CBP        44.2137   -2.9092   10.4346 C.2         1 MOL       0.2271
      7 OBV        44.7151   -4.0261   10.5209 O.2         1 MOL      -0.3908
      8 CBG        44.8603   -1.7486   11.0530 C.3         1 MOL       0.0928
      9 CBH        44.7761   -0.4646   10.1402 C.3         1 MOL       0.1121
     10 CBJ        44.0697    0.7268   10.8382 C.3         1 MOL      -0.0314
     11 OBI        46.0581   -0.0393    9.6768 O.3         1 MOL      -0.3840
     12 NBF        46.2528   -2.0546   11.5275 N.4         1 MOL       0.2497
     13 CAX        46.7400   -1.3141   12.7240 C.3         1 MOL      -0.0062
     14 CAW        48.0645   -1.8726   13.3388 C.3         1 MOL       0.0906
     15 CAY        48.3942   -1.1438   14.6992 C.3         1 MOL       0.0089
     16 CAZ        48.9871   -2.0101   15.7601 C.ar        1 MOL      -0.0406
     17 CBA        50.2989   -1.7979   16.2496 C.ar        1 MOL      -0.0603
     18 CBB        50.8390   -2.6187   17.2573 C.ar        1 MOL      -0.0686
     19 CBC        50.0656   -3.6524   17.8131 C.ar        1 MOL      -0.0687
     20 CBD        48.7492   -3.8587   17.3671 C.ar        1 MOL      -0.0686
     21 CBE        48.2118   -3.0354   16.3570 C.ar        1 MOL      -0.0603
     22 NAV        49.0769   -1.8275   12.3122 N.am        1 MOL      -0.2761
     23 CAT        50.3952   -1.6654   12.3891 C.2         1 MOL       0.2026
     24 OAU        50.9508   -1.4142   13.4474 O.2         1 MOL      -0.3847
     25 CAP        51.1742   -1.7800   11.2392 C.ar        1 MOL       0.0397
     26 CAQ        52.3261   -0.9809   11.0258 C.ar        1 MOL      -0.0393
     27 CAO        50.8223   -2.7213   10.2465 C.ar        1 MOL      -0.0214
     28 CAN        51.5570   -2.8344    9.0509 C.ar        1 MOL       0.0754
     29 NAE        51.1691   -3.7563    8.1285 N.am        1 MOL      -0.1796
     30 CBT        51.6274   -5.1135    8.1797 C.3         1 MOL       0.0445
     31 SAB        50.0186   -3.3143    6.9730 S.o2        1 MOL       0.0593
     32 OAC        50.6754   -3.2381    5.5305 O.2         1 MOL      -0.1500
     33 OAD        48.8830   -4.4271    6.9771 O.2         1 MOL      -0.1500
     34 CAA        49.1755   -1.7576    7.3147 C.3         1 MOL       0.0790
     35 CAS        52.6666   -1.9915    8.8365 C.ar        1 MOL      -0.0214
     36 CAR        53.0774   -1.0686    9.8239 C.ar        1 MOL       0.0398
     37 CAL        54.1991   -0.2768    9.6239 C.2         1 MOL       0.2041
     38 OAM        54.2776    0.3658    8.5802 O.2         1 MOL      -0.3845
     39 NBQ        55.1863   -0.2962   10.5091 N.am        1 MOL      -0.2723
     40 CBR        56.4312    0.4198   10.5024 C.3         1 MOL       0.0723
     41 CBS        56.2908    1.7105   11.3556 C.3         1 MOL      -0.0320
     42 CAI        57.0617    0.5838    9.1490 C.ar        1 MOL      -0.0183
     43 CAH        57.4648   -0.5736    8.4371 C.ar        1 MOL      -0.0582
     44 CAG        58.0884   -0.4748    7.1821 C.ar        1 MOL      -0.0685
     45 CAF        58.3066    0.7901    6.6037 C.ar        1 MOL      -0.0687
     46 CAK        57.8855    1.9496    7.2774 C.ar        1 MOL      -0.0685
     47 CAJ        57.2587    1.8470    8.5351 C.ar        1 MOL      -0.0582
     48 H1         41.7493   -5.9633   12.3300 H           1 MOL       0.0233
     49 H2         43.0608   -4.7695   12.1256 H           1 MOL       0.0233
     50 H3         42.8585   -6.0876   10.9595 H           1 MOL       0.0233
     51 H4         40.6118   -5.1670   10.3328 H           1 MOL       0.0315
     52 H5         39.9170   -2.8878   11.0747 H           1 MOL       0.0233
     53 H6         41.3191   -2.8030   12.1541 H           1 MOL       0.0233
     54 H7         40.0491   -4.0070   12.4378 H           1 MOL       0.0233
     55 H8         41.3167   -3.3320    8.9264 H           1 MOL       0.0522
     56 H9         42.5815   -4.5459    8.9336 H           1 MOL       0.0522
     57 H10        42.6346   -1.8587    9.9141 H           1 MOL       0.1853
     58 H11        44.2550   -1.5813   11.9538 H           1 MOL       0.1125
     59 H12        44.1941   -0.6628    9.2342 H           1 MOL       0.0674
     60 H13        44.0188    1.5810   10.1663 H           1 MOL       0.0258
     61 H14        44.6051    1.0234   11.7402 H           1 MOL       0.0258
     62 H15        43.0493    0.4485   11.1109 H           1 MOL       0.0258
     63 H16        46.2245   -0.5666    8.8647 H           1 MOL       0.2102
     64 H17        46.8967   -1.8908   10.7503 H           1 MOL       0.2037
     65 H18        46.3017   -3.0483   11.7523 H           1 MOL       0.2037
     66 H19        45.9620   -1.3791   13.4805 H           1 MOL       0.0839
     67 H20        46.8816   -0.2594   12.4703 H           1 MOL       0.0839
     68 H21        47.8798   -2.9318   13.5352 H           1 MOL       0.0632
     69 H22        47.4819   -0.7330   15.1460 H           1 MOL       0.0450
     70 H23        49.0359   -0.2844   14.4878 H           1 MOL       0.0450
     71 H24        50.8765   -1.0401   15.8732 H           1 MOL       0.0557
     72 H25        51.7955   -2.4612   17.5897 H           1 MOL       0.0599
     73 H26        50.4568   -4.2483   18.5444 H           1 MOL       0.0559
     74 H27        48.1786   -4.5975   17.7796 H           1 MOL       0.0599
     75 H28        47.2473   -3.1885   16.0633 H           1 MOL       0.0557
     76 H29        48.7448   -2.0171   11.4225 H           1 MOL       0.1852
     77 H30        52.6023   -0.2963   11.7389 H           1 MOL       0.0576
     78 H31        50.0234   -3.3453   10.3876 H           1 MOL       0.0566
     79 H32        52.3341   -5.2776    8.9959 H           1 MOL       0.0517
     80 H33        52.1193   -5.3841    7.2435 H           1 MOL       0.0517
     81 H34        50.7805   -5.7844    8.3401 H           1 MOL       0.0517
     82 H35        48.4878   -1.5321    6.5016 H           1 MOL       0.0487
     83 H36        49.9064   -0.9532    7.4018 H           1 MOL       0.0487
     84 H37        48.6147   -1.8344    8.2466 H           1 MOL       0.0487
     85 H38        53.1949   -2.0757    7.9644 H           1 MOL       0.0566
     86 H39        55.0556   -0.8844   11.2697 H           1 MOL       0.1875
     87 H40        57.1176   -0.1996   11.0838 H           1 MOL       0.0716
     88 H41        57.2400    2.2492   11.3957 H           1 MOL       0.0274
     89 H42        56.0091    1.4514   12.3800 H           1 MOL       0.0274
     90 H43        55.5239    2.3712   10.9458 H           1 MOL       0.0274
     91 H44        57.3135   -1.5038    8.8364 H           1 MOL       0.0557
     92 H45        58.3973   -1.3162    6.6932 H           1 MOL       0.0599
     93 H46        58.7708    0.8662    5.6910 H           1 MOL       0.0559
     94 H47        58.0374    2.8701    6.8555 H           1 MOL       0.0599
     95 H48        56.9533    2.7068    8.9922 H           1 MOL       0.0557
@<TRIPOS>BOND
     1     1     2   1
     2     2     3   1
     3     2     4   1
     4     4     5   1
     5     5     6  am
     6     6     7   2
     7     6     8   1
     8     8     9   1
     9     8    12   1
    10     9    10   1
    11     9    11   1
    12    12    13   1
    13    13    14   1
    14    14    15   1
    15    14    22   1
    16    15    16   1
    17    16    17  ar
    18    16    21  ar
    19    17    18  ar
    20    18    19  ar
    21    19    20  ar
    22    20    21  ar
    23    22    23  am
    24    23    24   2
    25    23    25   1
    26    25    26  ar
    27    25    27  ar
    28    26    36  ar
    29    27    28  ar
    30    28    29   1
    31    28    35  ar
    32    29    30   1
    33    29    31  am
    34    31    32   2
    35    31    33   2
    36    31    34   1
    37    35    36  ar
    38    36    37   1
    39    37    38   2
    40    37    39  am
    41    39    40   1
    42    40    41   1
    43    40    42   1
    44    42    43  ar
    45    42    47  ar
    46    43    44  ar
    47    44    45  ar
    48    45    46  ar
    49    46    47  ar
    50     1    48   1
    51     1    49   1
    52     1    50   1
    53     2    51   1
    54     3    52   1
    55     3    53   1
    56     3    54   1
    57     4    55   1
    58     4    56   1
    59     5    57   1
    60     8    58   1
    61     9    59   1
    62    10    60   1
    63    10    61   1
    64    10    62   1
    65    11    63   1
    66    12    64   1
    67    12    65   1
    68    13    66   1
    69    13    67   1
    70    14    68   1
    71    15    69   1
    72    15    70   1
    73    17    71   1
    74    18    72   1
    75    19    73   1
    76    20    74   1
    77    21    75   1
    78    22    76   1
    79    26    77   1
    80    27    78   1
    81    30    79   1
    82    30    80   1
    83    30    81   1
    84    34    82   1
    85    34    83   1
    86    34    84   1
    87    35    85   1
    88    39    86   1
    89    40    87   1
    90    41    88   1
    91    41    89   1
    92    41    90   1
    93    43    91   1
    94    44    92   1
    95    45    93   1
    96    46    94   1
    97    47    95   1
@<TRIPOS>SUBSTRUCTURE
     1  MOL      1

