@<TRIPOS>MOLECULE
4gid_ligand_077
    95    97
SMALL
GAST_HUCK
****
This file was generated by PARSER (from files_GN.cpp)

@<TRIPOS>ATOM
      1 CBK        31.6368   -4.5653    7.5355 C.3         1 MOL      -0.0608
      2 CBL        32.3193   -3.1737    7.5410 C.3         1 MOL      -0.0265
      3 CBM        32.3064   -2.5674    8.9736 C.3         1 MOL      -0.0608
      4 CBN        33.7482   -3.2345    6.9233 C.3         1 MOL       0.0334
      5 NBO        34.6357   -3.9539    7.7765 N.am        1 MOL      -0.2820
      6 CBP        35.2812   -5.0926    7.5294 C.2         1 MOL       0.2271
      7 OBV        35.2462   -5.5955    6.4101 O.2         1 MOL      -0.3908
      8 CBG        35.9595   -5.7316    8.6559 C.3         1 MOL       0.0928
      9 CBH        37.0659   -6.7840    8.2882 C.3         1 MOL       0.1121
     10 CBJ        36.6046   -8.2602    8.1599 C.3         1 MOL      -0.0314
     11 OBI        37.7390   -6.3615    7.0995 O.3         1 MOL      -0.3840
     12 NBF        34.8826   -6.1950    9.5928 N.4         1 MOL       0.2497
     13 CAX        35.1424   -6.9944   10.8197 C.3         1 MOL      -0.0062
     14 CAW        36.4838   -6.7095   11.5856 C.3         1 MOL       0.0906
     15 CAY        37.3666   -7.9972   11.7804 C.3         1 MOL       0.0089
     16 CAZ        38.8594   -7.9188   11.7105 C.ar        1 MOL      -0.0406
     17 CBA        39.5984   -6.8617   11.1195 C.ar        1 MOL      -0.0603
     18 CBB        41.0007   -6.9304   11.0128 C.ar        1 MOL      -0.0686
     19 CBC        41.6948   -8.0504   11.4986 C.ar        1 MOL      -0.0687
     20 CBD        40.9879   -9.0885   12.1332 C.ar        1 MOL      -0.0686
     21 CBE        39.5840   -9.0234   12.2278 C.ar        1 MOL      -0.0603
     22 NAV        36.1665   -6.1221   12.8650 N.am        1 MOL      -0.2761
     23 CAT        36.2953   -4.8444   13.2276 C.2         1 MOL       0.2026
     24 OAU        36.7627   -4.0524   12.4148 O.2         1 MOL      -0.3847
     25 CAP        35.8970   -4.3842   14.4976 C.ar        1 MOL       0.0397
     26 CAQ        36.2008   -3.0569   14.9086 C.ar        1 MOL      -0.0393
     27 CAO        35.2070   -5.2005   15.4325 C.ar        1 MOL      -0.0214
     28 CAN        34.8717   -4.7363   16.7242 C.ar        1 MOL       0.0754
     29 NAE        34.2190   -5.5458   17.6150 N.am        1 MOL      -0.1796
     30 CBT        34.8796   -6.0469   18.7896 C.3         1 MOL       0.0445
     31 SAB        32.6043   -5.9547   17.3080 S.o2        1 MOL       0.0593
     32 OAC        31.8402   -4.6619   16.7796 O.2         1 MOL      -0.1500
     33 OAD        32.4911   -7.0943   16.2055 O.2         1 MOL      -0.1500
     34 CAA        31.6649   -6.4674   18.7637 C.3         1 MOL       0.0790
     35 CAS        35.2380   -3.4299   17.1045 C.ar        1 MOL      -0.0214
     36 CAR        35.8999   -2.5623   16.1993 C.ar        1 MOL       0.0398
     37 CAL        36.2725   -1.2722   16.5667 C.2         1 MOL       0.2041
     38 OAM        36.0658   -0.3439   15.7861 O.2         1 MOL      -0.3845
     39 NBQ        36.8971   -1.0448   17.7191 N.am        1 MOL      -0.2723
     40 CBR        37.4277    0.2002   18.2092 C.3         1 MOL       0.0723
     41 CBS        38.9415   -0.0731   18.4518 C.3         1 MOL      -0.0320
     42 CAI        36.6675    0.7079   19.4044 C.ar        1 MOL      -0.0183
     43 CAH        37.2481    1.6341   20.3095 C.ar        1 MOL      -0.0582
     44 CAG        36.5319    2.1417   21.4095 C.ar        1 MOL      -0.0685
     45 CAF        35.1965    1.7582   21.6132 C.ar        1 MOL      -0.0687
     46 CAK        34.5780    0.8797   20.7088 C.ar        1 MOL      -0.0685
     47 CAJ        35.3018    0.3675   19.6147 C.ar        1 MOL      -0.0582
     48 H1         30.6033   -4.4773    7.8738 H           1 MOL       0.0233
     49 H2         32.1575   -5.2599    8.1995 H           1 MOL       0.0233
     50 H3         31.6337   -4.9847    6.5266 H           1 MOL       0.0233
     51 H4         31.7210   -2.5219    6.9011 H           1 MOL       0.0315
     52 H5         32.8724   -1.6356    9.0076 H           1 MOL       0.0233
     53 H6         32.7456   -3.2583    9.6978 H           1 MOL       0.0233
     54 H7         31.2811   -2.3510    9.2822 H           1 MOL       0.0233
     55 H8         34.1501   -2.2238    6.8151 H           1 MOL       0.0522
     56 H9         33.6924   -3.6657    5.9197 H           1 MOL       0.0522
     57 H10        34.7259   -3.6011    8.6773 H           1 MOL       0.1853
     58 H11        36.4950   -4.9125    9.1510 H           1 MOL       0.1125
     59 H12        37.8365   -6.7582    9.0657 H           1 MOL       0.0674
     60 H13        37.4067   -8.8468    7.7014 H           1 MOL       0.0258
     61 H14        35.6946   -8.3431    7.5620 H           1 MOL       0.0258
     62 H15        36.4087   -8.6881    9.1474 H           1 MOL       0.0258
     63 H16        38.3854   -5.6878    7.4119 H           1 MOL       0.2102
     64 H17        34.2184   -6.7363    9.0369 H           1 MOL       0.2037
     65 H18        34.3939   -5.3528    9.9099 H           1 MOL       0.2037
     66 H19        35.0570   -8.0461   10.5480 H           1 MOL       0.0839
     67 H20        34.2851   -6.8021   11.4787 H           1 MOL       0.0839
     68 H21        37.0564   -5.9983   10.9940 H           1 MOL       0.0632
     69 H22        37.0952   -8.7177   10.9944 H           1 MOL       0.0450
     70 H23        37.0880   -8.4481   12.7367 H           1 MOL       0.0450
     71 H24        39.1362   -6.0311   10.7526 H           1 MOL       0.0557
     72 H25        41.5144   -6.1612   10.5674 H           1 MOL       0.0599
     73 H26        42.7150   -8.1018   11.4050 H           1 MOL       0.0559
     74 H27        41.4941   -9.8856   12.5229 H           1 MOL       0.0599
     75 H28        39.0941   -9.8023   12.6818 H           1 MOL       0.0557
     76 H29        35.7327   -6.7208   13.4959 H           1 MOL       0.1852
     77 H30        36.7029   -2.4395   14.2684 H           1 MOL       0.0576
     78 H31        34.9506   -6.1614   15.1925 H           1 MOL       0.0566
     79 H32        35.9230   -5.7301   18.8462 H           1 MOL       0.0517
     80 H33        34.8638   -7.1381   18.7871 H           1 MOL       0.0517
     81 H34        34.3724   -5.6846   19.6846 H           1 MOL       0.0517
     82 H35        30.6234   -6.6350   18.4854 H           1 MOL       0.0487
     83 H36        31.7141   -5.6888   19.5253 H           1 MOL       0.0487
     84 H37        32.0859   -7.3911   19.1618 H           1 MOL       0.0487
     85 H38        34.9862   -3.0992   18.0415 H           1 MOL       0.0566
     86 H39        37.0634   -1.8211   18.2772 H           1 MOL       0.1875
     87 H40        37.3673    0.9820   17.4456 H           1 MOL       0.0716
     88 H41        39.4806    0.8534   18.6546 H           1 MOL       0.0274
     89 H42        39.3976   -0.5224   17.5642 H           1 MOL       0.0274
     90 H43        39.0770   -0.7537   19.2960 H           1 MOL       0.0274
     91 H44        38.2056    1.9654   20.1857 H           1 MOL       0.0557
     92 H45        36.9784    2.7970   22.0568 H           1 MOL       0.0599
     93 H46        34.6722    2.1301   22.4090 H           1 MOL       0.0559
     94 H47        33.5967    0.6194   20.8413 H           1 MOL       0.0599
     95 H48        34.8107   -0.2454   18.9633 H           1 MOL       0.0557
@<TRIPOS>BOND
     1     1     2   1
     2     2     3   1
     3     2     4   1
     4     4     5   1
     5     5     6  am
     6     6     7   2
     7     6     8   1
     8     8     9   1
     9     8    12   1
    10     9    10   1
    11     9    11   1
    12    12    13   1
    13    13    14   1
    14    14    15   1
    15    14    22   1
    16    15    16   1
    17    16    17  ar
    18    16    21  ar
    19    17    18  ar
    20    18    19  ar
    21    19    20  ar
    22    20    21  ar
    23    22    23  am
    24    23    24   2
    25    23    25   1
    26    25    26  ar
    27    25    27  ar
    28    26    36  ar
    29    27    28  ar
    30    28    29   1
    31    28    35  ar
    32    29    30   1
    33    29    31  am
    34    31    32   2
    35    31    33   2
    36    31    34   1
    37    35    36  ar
    38    36    37   1
    39    37    38   2
    40    37    39  am
    41    39    40   1
    42    40    41   1
    43    40    42   1
    44    42    43  ar
    45    42    47  ar
    46    43    44  ar
    47    44    45  ar
    48    45    46  ar
    49    46    47  ar
    50     1    48   1
    51     1    49   1
    52     1    50   1
    53     2    51   1
    54     3    52   1
    55     3    53   1
    56     3    54   1
    57     4    55   1
    58     4    56   1
    59     5    57   1
    60     8    58   1
    61     9    59   1
    62    10    60   1
    63    10    61   1
    64    10    62   1
    65    11    63   1
    66    12    64   1
    67    12    65   1
    68    13    66   1
    69    13    67   1
    70    14    68   1
    71    15    69   1
    72    15    70   1
    73    17    71   1
    74    18    72   1
    75    19    73   1
    76    20    74   1
    77    21    75   1
    78    22    76   1
    79    26    77   1
    80    27    78   1
    81    30    79   1
    82    30    80   1
    83    30    81   1
    84    34    82   1
    85    34    83   1
    86    34    84   1
    87    35    85   1
    88    39    86   1
    89    40    87   1
    90    41    88   1
    91    41    89   1
    92    41    90   1
    93    43    91   1
    94    44    92   1
    95    45    93   1
    96    46    94   1
    97    47    95   1
@<TRIPOS>SUBSTRUCTURE
     1  MOL      1

