@<TRIPOS>MOLECULE
4gid_ligand_065
    95    97
SMALL
GAST_HUCK
****
This file was generated by PARSER (from files_GN.cpp)

@<TRIPOS>ATOM
      1 CBK        41.3705   -3.4358   11.2206 C.3         1 MOL      -0.0608
      2 CBL        42.3921   -4.0210   10.2103 C.3         1 MOL      -0.0265
      3 CBM        41.9954   -3.7084    8.7451 C.3         1 MOL      -0.0608
      4 CBN        43.8494   -3.5961   10.5385 C.3         1 MOL       0.0334
      5 NBO        44.0581   -2.1740   10.5844 N.am        1 MOL      -0.2820
      6 CBP        44.9966   -1.5528   11.2755 C.2         1 MOL       0.2271
      7 OBV        45.6848   -2.2436   12.0424 O.2         1 MOL      -0.3908
      8 CBG        45.1900   -0.1001   11.2108 C.3         1 MOL       0.0928
      9 CBH        45.7676    0.4029    9.8374 C.3         1 MOL       0.1121
     10 CBJ        44.7553    0.4349    8.6609 C.3         1 MOL      -0.0314
     11 OBI        46.2419    1.7487    9.9308 O.3         1 MOL      -0.3840
     12 NBF        45.9030    0.4553   12.4088 N.4         1 MOL       0.2497
     13 CAX        47.3186    0.1177   12.7637 C.3         1 MOL      -0.0062
     14 CAW        47.6275    0.3817   14.2849 C.3         1 MOL       0.0906
     15 CAY        48.7525    1.4601   14.5349 C.3         1 MOL       0.0089
     16 CAZ        49.7405    1.1889   15.6186 C.ar        1 MOL      -0.0406
     17 CBA        51.1354    1.2111   15.3606 C.ar        1 MOL      -0.0603
     18 CBB        52.0607    0.9659   16.3908 C.ar        1 MOL      -0.0686
     19 CBC        51.6109    0.6807   17.6902 C.ar        1 MOL      -0.0687
     20 CBD        50.2329    0.6546   17.9650 C.ar        1 MOL      -0.0686
     21 CBE        49.3076    0.9233   16.9408 C.ar        1 MOL      -0.0603
     22 NAV        47.9445   -0.8765   14.9315 N.am        1 MOL      -0.2761
     23 CAT        47.4229   -1.3974   16.0360 C.2         1 MOL       0.2026
     24 OAU        46.4965   -0.8113   16.5979 O.2         1 MOL      -0.3847
     25 CAP        47.9522   -2.5326   16.6520 C.ar        1 MOL       0.0397
     26 CAQ        47.1629   -3.3981   17.4397 C.ar        1 MOL      -0.0393
     27 CAO        49.3362   -2.8453   16.5360 C.ar        1 MOL      -0.0214
     28 CAN        49.8904   -4.0645   16.9888 C.ar        1 MOL       0.0754
     29 NAE        51.2325   -4.4036   16.7389 N.am        1 MOL      -0.1796
     30 CBT        51.9434   -5.4170   17.4909 C.3         1 MOL       0.0445
     31 SAB        52.1747   -3.5906   15.5797 S.o2        1 MOL       0.0593
     32 OAC        52.8290   -2.3010   16.2425 O.2         1 MOL      -0.1500
     33 OAD        53.4312   -4.4811   15.1580 O.2         1 MOL      -0.1500
     34 CAA        51.4591   -3.1360   13.9800 C.3         1 MOL       0.0790
     35 CAS        49.0145   -4.9225   17.6972 C.ar        1 MOL      -0.0214
     36 CAR        47.6749   -4.5792   18.0170 C.ar        1 MOL       0.0398
     37 CAL        46.9034   -5.3995   18.8476 C.2         1 MOL       0.2041
     38 OAM        45.6857   -5.4603   18.6676 O.2         1 MOL      -0.3845
     39 NBQ        47.4388   -6.1318   19.8207 N.am        1 MOL      -0.2723
     40 CBR        46.7570   -7.0175   20.7287 C.3         1 MOL       0.0723
     41 CBS        47.7984   -7.6798   21.6671 C.3         1 MOL      -0.0320
     42 CAI        45.9414   -8.0520   20.0126 C.ar        1 MOL      -0.0183
     43 CAH        46.4803   -8.7571   18.9094 C.ar        1 MOL      -0.0582
     44 CAG        45.7035   -9.6890   18.1998 C.ar        1 MOL      -0.0685
     45 CAF        44.3795   -9.9500   18.5940 C.ar        1 MOL      -0.0687
     46 CAK        43.8341   -9.2734   19.7007 C.ar        1 MOL      -0.0685
     47 CAJ        44.6078   -8.3281   20.3993 C.ar        1 MOL      -0.0582
     48 H1         40.3729   -3.8254   11.0199 H           1 MOL       0.0233
     49 H2         41.3368   -2.3480   11.1550 H           1 MOL       0.0233
     50 H3         41.6424   -3.7142   12.2403 H           1 MOL       0.0233
     51 H4         42.3519   -5.1085   10.3141 H           1 MOL       0.0315
     52 H5         42.7186   -4.1441    8.0553 H           1 MOL       0.0233
     53 H6         41.9462   -2.6337    8.5719 H           1 MOL       0.0233
     54 H7         41.0237   -4.1459    8.5237 H           1 MOL       0.0233
     55 H8         44.5235   -4.0024    9.7837 H           1 MOL       0.0522
     56 H9         44.1218   -4.0577   11.4882 H           1 MOL       0.0522
     57 H10        43.4735   -1.6225   10.0317 H           1 MOL       0.1853
     58 H11        44.1837    0.3322   11.2963 H           1 MOL       0.1125
     59 H12        46.6098   -0.2312    9.5466 H           1 MOL       0.0674
     60 H13        45.2324    0.8539    7.7702 H           1 MOL       0.0258
     61 H14        43.8974    1.0636    8.9127 H           1 MOL       0.0258
     62 H15        44.4023   -0.5631    8.4090 H           1 MOL       0.0258
     63 H16        47.0538    1.7241   10.4728 H           1 MOL       0.2102
     64 H17        45.3297    0.2092   13.2116 H           1 MOL       0.2037
     65 H18        45.8639    1.4774   12.3311 H           1 MOL       0.2037
     66 H19        47.9583    0.7216   12.1233 H           1 MOL       0.0839
     67 H20        47.5704   -0.9123   12.5223 H           1 MOL       0.0839
     68 H21        46.7163    0.7920   14.7377 H           1 MOL       0.0632
     69 H22        48.2675    2.4084   14.7793 H           1 MOL       0.0450
     70 H23        49.2964    1.6566   13.6110 H           1 MOL       0.0450
     71 H24        51.4852    1.4036   14.4197 H           1 MOL       0.0557
     72 H25        53.0651    0.9895   16.1899 H           1 MOL       0.0599
     73 H26        52.2842    0.4885   18.4345 H           1 MOL       0.0559
     74 H27        49.9032    0.4485   18.9106 H           1 MOL       0.0599
     75 H28        48.3085    0.9018   17.1595 H           1 MOL       0.0557
     76 H29        48.6835   -1.3602   14.5282 H           1 MOL       0.1852
     77 H30        46.1792   -3.1599   17.6037 H           1 MOL       0.0576
     78 H31        49.9451   -2.1406   16.1306 H           1 MOL       0.0566
     79 H32        51.4688   -5.7126   18.4236 H           1 MOL       0.0517
     80 H33        52.9270   -5.0583   17.7965 H           1 MOL       0.0517
     81 H34        52.0618   -6.3078   16.8689 H           1 MOL       0.0517
     82 H35        52.1710   -2.5262   13.4248 H           1 MOL       0.0487
     83 H36        50.5458   -2.5565   14.0912 H           1 MOL       0.0487
     84 H37        51.2321   -4.0364   13.4100 H           1 MOL       0.0487
     85 H38        49.3231   -5.8540   17.9732 H           1 MOL       0.0566
     86 H39        48.3997   -6.0535   19.9486 H           1 MOL       0.1875
     87 H40        46.1090   -6.4002   21.3627 H           1 MOL       0.0716
     88 H41        47.3075   -8.3472   22.3754 H           1 MOL       0.0274
     89 H42        48.3295   -6.9110   22.2319 H           1 MOL       0.0274
     90 H43        48.5305   -8.2517   21.0940 H           1 MOL       0.0274
     91 H44        47.4381   -8.5767   18.6001 H           1 MOL       0.0557
     92 H45        46.0975  -10.1718   17.3913 H           1 MOL       0.0599
     93 H46        43.8146  -10.6256   18.0753 H           1 MOL       0.0559
     94 H47        42.8721   -9.4653   19.9891 H           1 MOL       0.0599
     95 H48        44.1880   -7.8435   21.1971 H           1 MOL       0.0557
@<TRIPOS>BOND
     1     1     2   1
     2     2     3   1
     3     2     4   1
     4     4     5   1
     5     5     6  am
     6     6     7   2
     7     6     8   1
     8     8     9   1
     9     8    12   1
    10     9    10   1
    11     9    11   1
    12    12    13   1
    13    13    14   1
    14    14    15   1
    15    14    22   1
    16    15    16   1
    17    16    17  ar
    18    16    21  ar
    19    17    18  ar
    20    18    19  ar
    21    19    20  ar
    22    20    21  ar
    23    22    23  am
    24    23    24   2
    25    23    25   1
    26    25    26  ar
    27    25    27  ar
    28    26    36  ar
    29    27    28  ar
    30    28    29   1
    31    28    35  ar
    32    29    30   1
    33    29    31  am
    34    31    32   2
    35    31    33   2
    36    31    34   1
    37    35    36  ar
    38    36    37   1
    39    37    38   2
    40    37    39  am
    41    39    40   1
    42    40    41   1
    43    40    42   1
    44    42    43  ar
    45    42    47  ar
    46    43    44  ar
    47    44    45  ar
    48    45    46  ar
    49    46    47  ar
    50     1    48   1
    51     1    49   1
    52     1    50   1
    53     2    51   1
    54     3    52   1
    55     3    53   1
    56     3    54   1
    57     4    55   1
    58     4    56   1
    59     5    57   1
    60     8    58   1
    61     9    59   1
    62    10    60   1
    63    10    61   1
    64    10    62   1
    65    11    63   1
    66    12    64   1
    67    12    65   1
    68    13    66   1
    69    13    67   1
    70    14    68   1
    71    15    69   1
    72    15    70   1
    73    17    71   1
    74    18    72   1
    75    19    73   1
    76    20    74   1
    77    21    75   1
    78    22    76   1
    79    26    77   1
    80    27    78   1
    81    30    79   1
    82    30    80   1
    83    30    81   1
    84    34    82   1
    85    34    83   1
    86    34    84   1
    87    35    85   1
    88    39    86   1
    89    40    87   1
    90    41    88   1
    91    41    89   1
    92    41    90   1
    93    43    91   1
    94    44    92   1
    95    45    93   1
    96    46    94   1
    97    47    95   1
@<TRIPOS>SUBSTRUCTURE
     1  MOL      1

