@<TRIPOS>MOLECULE
4gid_ligand_071
    95    97
SMALL
GAST_HUCK
****
This file was generated by PARSER (from files_GN.cpp)

@<TRIPOS>ATOM
      1 CBK        46.8825   -3.0039    9.4748 C.3         1 MOL      -0.0608
      2 CBL        46.3736   -2.9472   10.9408 C.3         1 MOL      -0.0265
      3 CBM        47.4900   -2.4417   11.8960 C.3         1 MOL      -0.0608
      4 CBN        45.0622   -2.1109   11.0711 C.3         1 MOL       0.0334
      5 NBO        43.8949   -2.9553   11.0441 N.am        1 MOL      -0.2820
      6 CBP        42.7363   -2.6992   11.6392 C.2         1 MOL       0.2271
      7 OBV        42.6228   -1.6747   12.3077 O.2         1 MOL      -0.3908
      8 CBG        41.6442   -3.6891   11.6706 C.3         1 MOL       0.0928
      9 CBH        41.6820   -4.7520   10.5172 C.3         1 MOL       0.1121
     10 CBJ        41.8196   -4.1544    9.0935 C.3         1 MOL      -0.0314
     11 OBI        42.7321   -5.7026   10.7064 O.3         1 MOL      -0.3840
     12 NBF        40.2872   -3.0468   11.6569 N.4         1 MOL       0.2497
     13 CAX        39.6466   -2.6132   12.9325 C.3         1 MOL      -0.0062
     14 CAW        39.0268   -3.7685   13.7997 C.3         1 MOL       0.0906
     15 CAY        37.5671   -4.1554   13.3507 C.3         1 MOL       0.0089
     16 CAZ        36.4249   -3.5390   14.0980 C.ar        1 MOL      -0.0406
     17 CBA        35.4097   -4.3511   14.6707 C.ar        1 MOL      -0.0603
     18 CBB        34.3371   -3.7807   15.3826 C.ar        1 MOL      -0.0686
     19 CBC        34.2607   -2.3852   15.5464 C.ar        1 MOL      -0.0687
     20 CBD        35.2627   -1.5657   14.9997 C.ar        1 MOL      -0.0686
     21 CBE        36.3244   -2.1346   14.2739 C.ar        1 MOL      -0.0603
     22 NAV        39.0551   -3.4919   15.2138 N.am        1 MOL      -0.2761
     23 CAT        40.1079   -3.1350   15.9438 C.2         1 MOL       0.2026
     24 OAU        41.2188   -2.9845   15.4468 O.2         1 MOL      -0.3847
     25 CAP        39.9494   -2.9127   17.2937 C.ar        1 MOL       0.0397
     26 CAQ        39.9912   -1.5961   17.8098 C.ar        1 MOL      -0.0393
     27 CAO        39.7491   -3.9922   18.1796 C.ar        1 MOL      -0.0214
     28 CAN        39.5991   -3.7717   19.5603 C.ar        1 MOL       0.0754
     29 NAE        39.4423   -4.8210   20.4107 N.am        1 MOL      -0.1796
     30 CBT        40.5588   -5.3662   21.1253 C.3         1 MOL       0.0445
     31 SAB        37.8975   -5.4822   20.6107 S.o2        1 MOL       0.0593
     32 OAC        37.9854   -6.7944   21.5063 O.2         1 MOL      -0.1500
     33 OAD        36.9548   -4.4858   21.4190 O.2         1 MOL      -0.1500
     34 CAA        37.1005   -6.0006   19.0800 C.3         1 MOL       0.0790
     35 CAS        39.6486   -2.4508   20.0567 C.ar        1 MOL      -0.0214
     36 CAR        39.8297   -1.3367   19.1962 C.ar        1 MOL       0.0398
     37 CAL        39.8476   -0.0239   19.6824 C.2         1 MOL       0.2041
     38 OAM        39.3384    0.8764   19.0134 O.2         1 MOL      -0.3845
     39 NBQ        40.3345    0.2908   20.8859 N.am        1 MOL      -0.2723
     40 CBR        40.4859    1.5948   21.4666 C.3         1 MOL       0.0723
     41 CBS        41.8121    1.6228   22.2711 C.3         1 MOL      -0.0320
     42 CAI        39.2332    1.9286   22.2195 C.ar        1 MOL      -0.0183
     43 CAH        38.0684    2.2484   21.4753 C.ar        1 MOL      -0.0582
     44 CAG        36.8595    2.5830   22.1154 C.ar        1 MOL      -0.0685
     45 CAF        36.7822    2.5782   23.5197 C.ar        1 MOL      -0.0687
     46 CAK        37.9183    2.2362   24.2775 C.ar        1 MOL      -0.0685
     47 CAJ        39.1331    1.9187   23.6351 C.ar        1 MOL      -0.0582
     48 H1         47.7386   -3.6770    9.3978 H           1 MOL       0.0233
     49 H2         47.1879   -2.0111    9.1351 H           1 MOL       0.0233
     50 H3         46.0953   -3.3743    8.8141 H           1 MOL       0.0233
     51 H4         46.1596   -3.9754   11.2475 H           1 MOL       0.0315
     52 H5         47.1447   -2.4825   12.9321 H           1 MOL       0.0233
     53 H6         47.7698   -1.4137   11.6587 H           1 MOL       0.0233
     54 H7         48.3769   -3.0757   11.8155 H           1 MOL       0.0233
     55 H8         44.9820   -1.3739   10.2656 H           1 MOL       0.0522
     56 H9         45.0685   -1.5588   12.0167 H           1 MOL       0.0522
     57 H10        43.9840   -3.8057   10.5846 H           1 MOL       0.1853
     58 H11        41.7566   -4.2450   12.6058 H           1 MOL       0.1125
     59 H12        40.7454   -5.3249   10.5488 H           1 MOL       0.0674
     60 H13        41.6175   -4.9273    8.3433 H           1 MOL       0.0258
     61 H14        42.8313   -3.7753    8.9363 H           1 MOL       0.0258
     62 H15        41.1127   -3.3339    8.9461 H           1 MOL       0.0258
     63 H16        42.5386   -6.1507   11.5613 H           1 MOL       0.2102
     64 H17        39.6266   -3.6631   11.1734 H           1 MOL       0.2037
     65 H18        40.3724   -2.2098   11.0772 H           1 MOL       0.2037
     66 H19        38.8546   -1.9132   12.6526 H           1 MOL       0.0839
     67 H20        40.3669   -2.0402   13.5195 H           1 MOL       0.0839
     68 H21        39.6484   -4.6543   13.6442 H           1 MOL       0.0632
     69 H22        37.4901   -5.2464   13.4259 H           1 MOL       0.0450
     70 H23        37.4325   -3.9299   12.2860 H           1 MOL       0.0450
     71 H24        35.4448   -5.3684   14.5767 H           1 MOL       0.0557
     72 H25        33.6122   -4.3794   15.7844 H           1 MOL       0.0599
     73 H26        33.4837   -1.9699   16.0651 H           1 MOL       0.0559
     74 H27        35.2240   -0.5545   15.1316 H           1 MOL       0.0599
     75 H28        37.0371   -1.5123   13.8900 H           1 MOL       0.0557
     76 H29        38.2200   -3.5889   15.7011 H           1 MOL       0.1852
     77 H30        40.1425   -0.8181   17.1610 H           1 MOL       0.0576
     78 H31        39.7197   -4.9525   17.8211 H           1 MOL       0.0566
     79 H32        41.4916   -4.8394   20.9105 H           1 MOL       0.0517
     80 H33        40.6965   -6.4120   20.8499 H           1 MOL       0.0517
     81 H34        40.3787   -5.3049   22.1981 H           1 MOL       0.0517
     82 H35        36.1566   -6.4939   19.3076 H           1 MOL       0.0487
     83 H36        37.7504   -6.6935   18.5470 H           1 MOL       0.0487
     84 H37        36.9091   -5.1301   18.4560 H           1 MOL       0.0487
     85 H38        39.5298   -2.3105   21.0618 H           1 MOL       0.0566
     86 H39        40.6435   -0.4438   21.4401 H           1 MOL       0.1875
     87 H40        40.6136    2.3657   20.7003 H           1 MOL       0.0716
     88 H41        41.9388    2.5873   22.7700 H           1 MOL       0.0274
     89 H42        42.6623    1.4755   21.5922 H           1 MOL       0.0274
     90 H43        41.8312    0.8277   23.0193 H           1 MOL       0.0274
     91 H44        38.0947    2.2406   20.4452 H           1 MOL       0.0557
     92 H45        36.0378    2.8303   21.5603 H           1 MOL       0.0599
     93 H46        35.9055    2.8200   23.9859 H           1 MOL       0.0559
     94 H47        37.8567    2.2176   25.3002 H           1 MOL       0.0599
     95 H48        39.9405    1.6740   24.2165 H           1 MOL       0.0557
@<TRIPOS>BOND
     1     1     2   1
     2     2     3   1
     3     2     4   1
     4     4     5   1
     5     5     6  am
     6     6     7   2
     7     6     8   1
     8     8     9   1
     9     8    12   1
    10     9    10   1
    11     9    11   1
    12    12    13   1
    13    13    14   1
    14    14    15   1
    15    14    22   1
    16    15    16   1
    17    16    17  ar
    18    16    21  ar
    19    17    18  ar
    20    18    19  ar
    21    19    20  ar
    22    20    21  ar
    23    22    23  am
    24    23    24   2
    25    23    25   1
    26    25    26  ar
    27    25    27  ar
    28    26    36  ar
    29    27    28  ar
    30    28    29   1
    31    28    35  ar
    32    29    30   1
    33    29    31  am
    34    31    32   2
    35    31    33   2
    36    31    34   1
    37    35    36  ar
    38    36    37   1
    39    37    38   2
    40    37    39  am
    41    39    40   1
    42    40    41   1
    43    40    42   1
    44    42    43  ar
    45    42    47  ar
    46    43    44  ar
    47    44    45  ar
    48    45    46  ar
    49    46    47  ar
    50     1    48   1
    51     1    49   1
    52     1    50   1
    53     2    51   1
    54     3    52   1
    55     3    53   1
    56     3    54   1
    57     4    55   1
    58     4    56   1
    59     5    57   1
    60     8    58   1
    61     9    59   1
    62    10    60   1
    63    10    61   1
    64    10    62   1
    65    11    63   1
    66    12    64   1
    67    12    65   1
    68    13    66   1
    69    13    67   1
    70    14    68   1
    71    15    69   1
    72    15    70   1
    73    17    71   1
    74    18    72   1
    75    19    73   1
    76    20    74   1
    77    21    75   1
    78    22    76   1
    79    26    77   1
    80    27    78   1
    81    30    79   1
    82    30    80   1
    83    30    81   1
    84    34    82   1
    85    34    83   1
    86    34    84   1
    87    35    85   1
    88    39    86   1
    89    40    87   1
    90    41    88   1
    91    41    89   1
    92    41    90   1
    93    43    91   1
    94    44    92   1
    95    45    93   1
    96    46    94   1
    97    47    95   1
@<TRIPOS>SUBSTRUCTURE
     1  MOL      1

