@<TRIPOS>MOLECULE
4gid_ligand_003
    95    97
SMALL
GAST_HUCK
****
This file was generated by PARSER (from files_GN.cpp)

@<TRIPOS>ATOM
      1 CBK        49.6269   -1.9044    7.6971 C.3         1 MOL      -0.0608
      2 CBL        49.4416   -3.1790    8.5651 C.3         1 MOL      -0.0265
      3 CBM        50.8139   -3.8526    8.8469 C.3         1 MOL      -0.0608
      4 CBN        48.6719   -2.8910    9.8888 C.3         1 MOL       0.0334
      5 NBO        47.3114   -2.5112    9.6497 N.am        1 MOL      -0.2820
      6 CBP        46.3099   -2.5994   10.5216 C.2         1 MOL       0.2271
      7 OBV        46.5049   -3.0279   11.6583 O.2         1 MOL      -0.3908
      8 CBG        44.9541   -2.2147   10.1281 C.3         1 MOL       0.0928
      9 CBH        44.3235   -3.2473    9.1334 C.3         1 MOL       0.1121
     10 CBJ        42.9914   -2.7755    8.4930 C.3         1 MOL      -0.0314
     11 OBI        45.2129   -3.6165    8.0832 O.3         1 MOL      -0.3840
     12 NBF        44.8134   -0.8052    9.6445 N.4         1 MOL       0.2497
     13 CAX        45.3027    0.3263   10.4786 C.3         1 MOL      -0.0062
     14 CAW        44.4095    0.7991   11.6891 C.3         1 MOL       0.0906
     15 CAY        45.1813    1.5362   12.8508 C.3         1 MOL       0.0089
     16 CAZ        46.6047    1.1477   13.0757 C.ar        1 MOL      -0.0406
     17 CBA        47.6095    2.1337   13.2522 C.ar        1 MOL      -0.0603
     18 CBB        48.9698    1.7802   13.3187 C.ar        1 MOL      -0.0686
     19 CBC        49.3490    0.4284   13.2282 C.ar        1 MOL      -0.0687
     20 CBD        48.3636   -0.5671   13.1092 C.ar        1 MOL      -0.0686
     21 CBE        47.0019   -0.2113   13.0425 C.ar        1 MOL      -0.0603
     22 NAV        43.5402   -0.2360   12.2112 N.am        1 MOL      -0.2761
     23 CAT        42.3356   -0.0635   12.7684 C.2         1 MOL       0.2026
     24 OAU        41.9435    1.0791   12.9926 O.2         1 MOL      -0.3847
     25 CAP        41.5179   -1.1376   13.1613 C.ar        1 MOL       0.0397
     26 CAQ        41.5882   -2.4165   12.5451 C.ar        1 MOL      -0.0393
     27 CAO        40.5446   -0.9587   14.1761 C.ar        1 MOL      -0.0214
     28 CAN        39.7035   -2.0108   14.5886 C.ar        1 MOL       0.0754
     29 NAE        38.7673   -1.8081   15.5554 N.am        1 MOL      -0.1796
     30 CBT        37.4806   -1.2501   15.2522 C.3         1 MOL       0.0445
     31 SAB        39.2284   -2.0163   17.1697 S.o2        1 MOL       0.0593
     32 OAC        37.9727   -2.4773   18.0323 O.2         1 MOL      -0.1500
     33 OAD        40.2423   -3.2346   17.2874 O.2         1 MOL      -0.1500
     34 CAA        39.9704   -0.5543   17.9168 C.3         1 MOL       0.0790
     35 CAS        39.8443   -3.2789   13.9929 C.ar        1 MOL      -0.0214
     36 CAR        40.7779   -3.5078   12.9535 C.ar        1 MOL       0.0398
     37 CAL        40.9016   -4.7785   12.3804 C.2         1 MOL       0.2041
     38 OAM        40.6290   -5.7603   13.0642 O.2         1 MOL      -0.3845
     39 NBQ        41.1972   -4.9528   11.0921 N.am        1 MOL      -0.2723
     40 CBR        41.4004   -6.2207   10.4315 C.3         1 MOL       0.0723
     41 CBS        41.4990   -6.0133    8.8965 C.3         1 MOL      -0.0320
     42 CAI        40.3942   -7.2921   10.7161 C.ar        1 MOL      -0.0183
     43 CAH        40.7271   -8.6406   10.4337 C.ar        1 MOL      -0.0582
     44 CAG        39.8057   -9.6773   10.6488 C.ar        1 MOL      -0.0685
     45 CAF        38.5279   -9.3819   11.1561 C.ar        1 MOL      -0.0687
     46 CAK        38.1710   -8.0494   11.4323 C.ar        1 MOL      -0.0685
     47 CAJ        39.0990   -7.0104   11.2141 C.ar        1 MOL      -0.0582
     48 H1         50.1397   -2.1560    6.7658 H           1 MOL       0.0233
     49 H2         50.2168   -1.1558    8.2312 H           1 MOL       0.0233
     50 H3         48.6606   -1.4681    7.4390 H           1 MOL       0.0233
     51 H4         48.8471   -3.8914    7.9834 H           1 MOL       0.0315
     52 H5         50.6780   -4.7766    9.4153 H           1 MOL       0.0233
     53 H6         51.4655   -3.1850    9.4173 H           1 MOL       0.0233
     54 H7         51.3128   -4.1081    7.9082 H           1 MOL       0.0233
     55 H8         49.1689   -2.0950   10.4484 H           1 MOL       0.0522
     56 H9         48.6902   -3.7961   10.5003 H           1 MOL       0.0522
     57 H10        47.0847   -2.1758    8.7650 H           1 MOL       0.1853
     58 H11        44.3423   -2.2792   11.0247 H           1 MOL       0.1125
     59 H12        44.1262   -4.1605    9.7010 H           1 MOL       0.0674
     60 H13        42.5308   -3.5891    7.9251 H           1 MOL       0.0258
     61 H14        43.1843   -1.9507    7.8051 H           1 MOL       0.0258
     62 H15        42.2811   -2.4501    9.2592 H           1 MOL       0.0258
     63 H16        44.6869   -4.1928    7.4917 H           1 MOL       0.2102
     64 H17        43.8187   -0.6325    9.4766 H           1 MOL       0.2037
     65 H18        45.3001   -0.7527    8.7459 H           1 MOL       0.2037
     66 H19        45.3959    1.1798    9.7995 H           1 MOL       0.0839
     67 H20        46.3194    0.0955   10.7851 H           1 MOL       0.0839
     68 H21        43.7422    1.5510   11.2469 H           1 MOL       0.0632
     69 H22        44.6481    1.4024   13.7966 H           1 MOL       0.0450
     70 H23        45.1357    2.6096   12.6414 H           1 MOL       0.0450
     71 H24        47.3612    3.1229   13.3007 H           1 MOL       0.0557
     72 H25        49.6866    2.5057   13.4101 H           1 MOL       0.0599
     73 H26        50.3381    0.1725   13.2415 H           1 MOL       0.0559
     74 H27        48.6395   -1.5507   13.0428 H           1 MOL       0.0599
     75 H28        46.3099   -0.9538   12.9151 H           1 MOL       0.0557
     76 H29        43.8796   -1.1424   12.1816 H           1 MOL       0.1852
     77 H30        42.2424   -2.5617   11.7803 H           1 MOL       0.0576
     78 H31        40.4437   -0.0516   14.6407 H           1 MOL       0.0566
     79 H32        37.3246   -1.1148   14.1778 H           1 MOL       0.0517
     80 H33        37.3787   -0.2759   15.7340 H           1 MOL       0.0517
     81 H34        36.6952   -1.9113   15.6223 H           1 MOL       0.0517
     82 H35        40.2209   -0.7699   18.9557 H           1 MOL       0.0487
     83 H36        39.2678    0.2791   17.8785 H           1 MOL       0.0487
     84 H37        40.8771   -0.2881   17.3735 H           1 MOL       0.0487
     85 H38        39.2359   -4.0374   14.3107 H           1 MOL       0.0566
     86 H39        41.3052   -4.1548   10.5490 H           1 MOL       0.1875
     87 H40        42.3776   -6.5766   10.7765 H           1 MOL       0.0716
     88 H41        41.5647   -6.9659    8.3598 H           1 MOL       0.0274
     89 H42        42.4008   -5.4437    8.6596 H           1 MOL       0.0274
     90 H43        40.6275   -5.4623    8.5255 H           1 MOL       0.0274
     91 H44        41.6475   -8.8741   10.0588 H           1 MOL       0.0557
     92 H45        40.0654  -10.6440   10.4342 H           1 MOL       0.0599
     93 H46        37.8599  -10.1381   11.3136 H           1 MOL       0.0559
     94 H47        37.2370   -7.8361   11.7869 H           1 MOL       0.0599
     95 H48        38.8147   -6.0489   11.4058 H           1 MOL       0.0557
@<TRIPOS>BOND
     1     1     2   1
     2     2     3   1
     3     2     4   1
     4     4     5   1
     5     5     6  am
     6     6     7   2
     7     6     8   1
     8     8     9   1
     9     8    12   1
    10     9    10   1
    11     9    11   1
    12    12    13   1
    13    13    14   1
    14    14    15   1
    15    14    22   1
    16    15    16   1
    17    16    17  ar
    18    16    21  ar
    19    17    18  ar
    20    18    19  ar
    21    19    20  ar
    22    20    21  ar
    23    22    23  am
    24    23    24   2
    25    23    25   1
    26    25    26  ar
    27    25    27  ar
    28    26    36  ar
    29    27    28  ar
    30    28    29   1
    31    28    35  ar
    32    29    30   1
    33    29    31  am
    34    31    32   2
    35    31    33   2
    36    31    34   1
    37    35    36  ar
    38    36    37   1
    39    37    38   2
    40    37    39  am
    41    39    40   1
    42    40    41   1
    43    40    42   1
    44    42    43  ar
    45    42    47  ar
    46    43    44  ar
    47    44    45  ar
    48    45    46  ar
    49    46    47  ar
    50     1    48   1
    51     1    49   1
    52     1    50   1
    53     2    51   1
    54     3    52   1
    55     3    53   1
    56     3    54   1
    57     4    55   1
    58     4    56   1
    59     5    57   1
    60     8    58   1
    61     9    59   1
    62    10    60   1
    63    10    61   1
    64    10    62   1
    65    11    63   1
    66    12    64   1
    67    12    65   1
    68    13    66   1
    69    13    67   1
    70    14    68   1
    71    15    69   1
    72    15    70   1
    73    17    71   1
    74    18    72   1
    75    19    73   1
    76    20    74   1
    77    21    75   1
    78    22    76   1
    79    26    77   1
    80    27    78   1
    81    30    79   1
    82    30    80   1
    83    30    81   1
    84    34    82   1
    85    34    83   1
    86    34    84   1
    87    35    85   1
    88    39    86   1
    89    40    87   1
    90    41    88   1
    91    41    89   1
    92    41    90   1
    93    43    91   1
    94    44    92   1
    95    45    93   1
    96    46    94   1
    97    47    95   1
@<TRIPOS>SUBSTRUCTURE
     1  MOL      1

