@<TRIPOS>MOLECULE
4gid_ligand_020
    95    97
SMALL
GAST_HUCK
****
This file was generated by PARSER (from files_GN.cpp)

@<TRIPOS>ATOM
      1 CBK        40.6498   -9.0661   12.5128 C.3         1 MOL      -0.0608
      2 CBL        40.8113   -8.6737   11.0192 C.3         1 MOL      -0.0265
      3 CBM        39.6120   -7.8146   10.5287 C.3         1 MOL      -0.0608
      4 CBN        42.1829   -7.9930   10.7252 C.3         1 MOL       0.0334
      5 NBO        42.2243   -6.6074   11.1047 N.am        1 MOL      -0.2820
      6 CBP        42.1827   -5.5543   10.2905 C.2         1 MOL       0.2271
      7 OBV        42.1263   -5.7195    9.0748 O.2         1 MOL      -0.3908
      8 CBG        42.1624   -4.1899   10.8370 C.3         1 MOL       0.0928
      9 CBH        40.8185   -3.8783   11.5940 C.3         1 MOL       0.1121
     10 CBJ        40.9047   -4.1151   13.1220 C.3         1 MOL      -0.0314
     11 OBI        40.3748   -2.5337   11.4000 O.3         1 MOL      -0.3840
     12 NBF        42.4478   -3.1616    9.7787 N.4         1 MOL       0.2497
     13 CAX        43.8778   -2.9322    9.4452 C.3         1 MOL      -0.0062
     14 CAW        44.6284   -2.0513   10.4951 C.3         1 MOL       0.0906
     15 CAY        44.1920   -0.5529   10.4590 C.3         1 MOL       0.0089
     16 CAZ        44.9851    0.3363   11.3589 C.ar        1 MOL      -0.0406
     17 CBA        44.4489    0.8116   12.5801 C.ar        1 MOL      -0.0603
     18 CBB        45.2197    1.6171   13.4404 C.ar        1 MOL      -0.0686
     19 CBC        46.5342    1.9718   13.0850 C.ar        1 MOL      -0.0687
     20 CBD        47.0718    1.5330   11.8622 C.ar        1 MOL      -0.0686
     21 CBE        46.3009    0.7241   11.0068 C.ar        1 MOL      -0.0603
     22 NAV        46.0394   -2.1687   10.2410 N.am        1 MOL      -0.2761
     23 CAT        46.9984   -2.3903   11.1279 C.2         1 MOL       0.2026
     24 OAU        46.7331   -2.5112   12.3237 O.2         1 MOL      -0.3847
     25 CAP        48.3313   -2.3940   10.7347 C.ar        1 MOL       0.0397
     26 CAQ        49.3210   -1.7218   11.4882 C.ar        1 MOL      -0.0393
     27 CAO        48.7291   -3.0663    9.5543 C.ar        1 MOL      -0.0214
     28 CAN        50.0795   -3.0901    9.1534 C.ar        1 MOL       0.0754
     29 NAE        50.4376   -3.7631    8.0265 N.am        1 MOL      -0.1796
     30 CBT        50.1115   -3.2530    6.7264 C.3         1 MOL       0.0445
     31 SAB        51.0903   -5.3165    8.1767 S.o2        1 MOL       0.0593
     32 OAC        50.1412   -6.3594    7.4429 O.2         1 MOL      -0.1500
     33 OAD        52.5384   -5.3742    7.5212 O.2         1 MOL      -0.1500
     34 CAA        51.2353   -5.8963    9.8847 C.3         1 MOL       0.0790
     35 CAS        51.0473   -2.4140    9.9187 C.ar        1 MOL      -0.0214
     36 CAR        50.6809   -1.6948   11.0809 C.ar        1 MOL       0.0398
     37 CAL        51.6228   -0.9304   11.7546 C.2         1 MOL       0.2041
     38 OAM        52.7012   -1.4320   12.0736 O.2         1 MOL      -0.3845
     39 NBQ        51.4027    0.3663   11.9309 N.am        1 MOL      -0.2723
     40 CBR        52.3294    1.3447   12.4334 C.3         1 MOL       0.0723
     41 CBS        51.5832    2.6744   12.7236 C.3         1 MOL      -0.0320
     42 CAI        53.4635    1.5728   11.4801 C.ar        1 MOL      -0.0183
     43 CAH        54.8111    1.4440   11.8995 C.ar        1 MOL      -0.0582
     44 CAG        55.8712    1.6579   10.9970 C.ar        1 MOL      -0.0685
     45 CAF        55.6012    2.0030    9.6615 C.ar        1 MOL      -0.0687
     46 CAK        54.2716    2.1361    9.2276 C.ar        1 MOL      -0.0685
     47 CAJ        53.2124    1.9187   10.1282 C.ar        1 MOL      -0.0582
     48 H1         39.7092   -9.6002   12.6621 H           1 MOL       0.0233
     49 H2         40.6558   -8.1807   13.1513 H           1 MOL       0.0233
     50 H3         41.4621   -9.7284   12.8192 H           1 MOL       0.0233
     51 H4         40.7896   -9.6068   10.4450 H           1 MOL       0.0315
     52 H5         39.7602   -7.5111    9.4889 H           1 MOL       0.0233
     53 H6         39.5021   -6.9157   11.1414 H           1 MOL       0.0233
     54 H7         38.6847   -8.3901   10.5896 H           1 MOL       0.0233
     55 H8         42.4095   -8.1294    9.6653 H           1 MOL       0.0522
     56 H9         42.9708   -8.5048   11.2787 H           1 MOL       0.0522
     57 H10        42.2781   -6.4370   12.0616 H           1 MOL       0.1853
     58 H11        42.9793   -4.1401   11.5648 H           1 MOL       0.1125
     59 H12        40.0200   -4.5100   11.1995 H           1 MOL       0.0674
     60 H13        39.9362   -3.9217   13.5829 H           1 MOL       0.0258
     61 H14        41.6422   -3.4414   13.5650 H           1 MOL       0.0258
     62 H15        41.1922   -5.1437   13.3358 H           1 MOL       0.0258
     63 H16        41.0031   -1.9771   11.9060 H           1 MOL       0.2102
     64 H17        42.0632   -2.2520   10.0402 H           1 MOL       0.2037
     65 H18        41.9668   -3.4499    8.9227 H           1 MOL       0.2037
     66 H19        43.9168   -2.4379    8.4689 H           1 MOL       0.0839
     67 H20        44.3837   -3.8991    9.3380 H           1 MOL       0.0839
     68 H21        44.3931   -2.4330   11.4936 H           1 MOL       0.0632
     69 H22        43.1414   -0.5011   10.7502 H           1 MOL       0.0450
     70 H23        44.2542   -0.1720    9.4347 H           1 MOL       0.0450
     71 H24        43.4999    0.5564   12.8607 H           1 MOL       0.0557
     72 H25        44.8227    1.9433   14.3245 H           1 MOL       0.0599
     73 H26        47.0937    2.5550   13.7131 H           1 MOL       0.0559
     74 H27        48.0246    1.7972   11.6008 H           1 MOL       0.0599
     75 H28        46.7145    0.4075   10.1273 H           1 MOL       0.0557
     76 H29        46.3188   -1.9847    9.3271 H           1 MOL       0.1852
     77 H30        49.0552   -1.2167   12.3397 H           1 MOL       0.0576
     78 H31        48.0390   -3.5763    8.9977 H           1 MOL       0.0566
     79 H32        49.7347   -2.2274    6.7645 H           1 MOL       0.0517
     80 H33        49.3426   -3.8767    6.2728 H           1 MOL       0.0517
     81 H34        50.9936   -3.2570    6.0866 H           1 MOL       0.0517
     82 H35        51.6466   -6.9072    9.9016 H           1 MOL       0.0487
     83 H36        50.2494   -5.9043   10.3525 H           1 MOL       0.0487
     84 H37        51.8929   -5.2324   10.4478 H           1 MOL       0.0487
     85 H38        52.0253   -2.4234    9.6019 H           1 MOL       0.0566
     86 H39        50.5642    0.7081   11.5804 H           1 MOL       0.1875
     87 H40        52.7039    0.9784   13.3978 H           1 MOL       0.0716
     88 H41        52.2786    3.4153   13.1275 H           1 MOL       0.0274
     89 H42        50.7928    2.5108   13.4615 H           1 MOL       0.0274
     90 H43        51.1271    3.0808   11.8158 H           1 MOL       0.0274
     91 H44        55.0337    1.1947   12.8654 H           1 MOL       0.0557
     92 H45        56.8394    1.5665   11.3112 H           1 MOL       0.0599
     93 H46        56.3700    2.1564    9.0040 H           1 MOL       0.0559
     94 H47        54.0711    2.3874    8.2580 H           1 MOL       0.0599
     95 H48        52.2517    2.0121    9.7913 H           1 MOL       0.0557
@<TRIPOS>BOND
     1     1     2   1
     2     2     3   1
     3     2     4   1
     4     4     5   1
     5     5     6  am
     6     6     7   2
     7     6     8   1
     8     8     9   1
     9     8    12   1
    10     9    10   1
    11     9    11   1
    12    12    13   1
    13    13    14   1
    14    14    15   1
    15    14    22   1
    16    15    16   1
    17    16    17  ar
    18    16    21  ar
    19    17    18  ar
    20    18    19  ar
    21    19    20  ar
    22    20    21  ar
    23    22    23  am
    24    23    24   2
    25    23    25   1
    26    25    26  ar
    27    25    27  ar
    28    26    36  ar
    29    27    28  ar
    30    28    29   1
    31    28    35  ar
    32    29    30   1
    33    29    31  am
    34    31    32   2
    35    31    33   2
    36    31    34   1
    37    35    36  ar
    38    36    37   1
    39    37    38   2
    40    37    39  am
    41    39    40   1
    42    40    41   1
    43    40    42   1
    44    42    43  ar
    45    42    47  ar
    46    43    44  ar
    47    44    45  ar
    48    45    46  ar
    49    46    47  ar
    50     1    48   1
    51     1    49   1
    52     1    50   1
    53     2    51   1
    54     3    52   1
    55     3    53   1
    56     3    54   1
    57     4    55   1
    58     4    56   1
    59     5    57   1
    60     8    58   1
    61     9    59   1
    62    10    60   1
    63    10    61   1
    64    10    62   1
    65    11    63   1
    66    12    64   1
    67    12    65   1
    68    13    66   1
    69    13    67   1
    70    14    68   1
    71    15    69   1
    72    15    70   1
    73    17    71   1
    74    18    72   1
    75    19    73   1
    76    20    74   1
    77    21    75   1
    78    22    76   1
    79    26    77   1
    80    27    78   1
    81    30    79   1
    82    30    80   1
    83    30    81   1
    84    34    82   1
    85    34    83   1
    86    34    84   1
    87    35    85   1
    88    39    86   1
    89    40    87   1
    90    41    88   1
    91    41    89   1
    92    41    90   1
    93    43    91   1
    94    44    92   1
    95    45    93   1
    96    46    94   1
    97    47    95   1
@<TRIPOS>SUBSTRUCTURE
     1  MOL      1

