@<TRIPOS>MOLECULE
4gid_ligand_040
    95    97
SMALL
GAST_HUCK
****
This file was generated by PARSER (from files_GN.cpp)

@<TRIPOS>ATOM
      1 CBK        41.9300   -8.0190   11.3794 C.3         1 MOL      -0.0608
      2 CBL        41.1938   -7.9938   10.0135 C.3         1 MOL      -0.0265
      3 CBM        40.1178   -9.1156    9.9376 C.3         1 MOL      -0.0608
      4 CBN        40.6130   -6.5834    9.6971 C.3         1 MOL       0.0334
      5 NBO        39.7790   -6.1020   10.7554 N.am        1 MOL      -0.2820
      6 CBP        39.8870   -4.9593   11.4280 C.2         1 MOL       0.2271
      7 OBV        40.7771   -4.1600   11.1674 O.2         1 MOL      -0.3908
      8 CBG        38.9339   -4.6773   12.4975 C.3         1 MOL       0.0928
      9 CBH        37.4680   -4.4745   11.9697 C.3         1 MOL       0.1121
     10 CBJ        36.6723   -5.7681   11.6460 C.3         1 MOL      -0.0314
     11 OBI        36.7039   -3.7580   12.9254 O.3         1 MOL      -0.3840
     12 NBF        39.4088   -3.6314   13.4602 N.4         1 MOL       0.2497
     13 CAX        39.1895   -2.1745   13.2240 C.3         1 MOL      -0.0062
     14 CAW        39.0058   -1.4036   14.5771 C.3         1 MOL       0.0906
     15 CAY        40.3392   -1.3454   15.4127 C.3         1 MOL       0.0089
     16 CAZ        40.2242   -1.6288   16.8761 C.ar        1 MOL      -0.0406
     17 CBA        40.7213   -2.8376   17.4230 C.ar        1 MOL      -0.0603
     18 CBB        40.5595   -3.1302   18.7889 C.ar        1 MOL      -0.0686
     19 CBC        39.8991   -2.2180   19.6311 C.ar        1 MOL      -0.0687
     20 CBD        39.4033   -1.0100   19.1046 C.ar        1 MOL      -0.0686
     21 CBE        39.5752   -0.7143   17.7393 C.ar        1 MOL      -0.0603
     22 NAV        37.9313   -1.9813   15.3475 N.am        1 MOL      -0.2761
     23 CAT        36.6494   -1.6547   15.3645 C.2         1 MOL       0.2026
     24 OAU        36.1513   -0.8933   14.5403 O.2         1 MOL      -0.3847
     25 CAP        35.8360   -2.3401   16.2436 C.ar        1 MOL       0.0397
     26 CAQ        35.8168   -2.0196   17.6208 C.ar        1 MOL      -0.0393
     27 CAO        35.0862   -3.4494   15.7935 C.ar        1 MOL      -0.0214
     28 CAN        34.3927   -4.2726   16.7006 C.ar        1 MOL       0.0754
     29 NAE        33.8062   -5.4226   16.2601 N.am        1 MOL      -0.1796
     30 CBT        34.5700   -6.6296   16.1395 C.3         1 MOL       0.0445
     31 SAB        32.3135   -5.3066   15.4766 S.o2        1 MOL       0.0593
     32 OAC        31.5728   -4.0294   16.0668 O.2         1 MOL      -0.1500
     33 OAD        32.5407   -5.0493   13.9246 O.2         1 MOL      -0.1500
     34 CAA        31.2093   -6.7026   15.7579 C.3         1 MOL       0.0790
     35 CAS        34.3469   -3.9151   18.0614 C.ar        1 MOL      -0.0214
     36 CAR        35.0416   -2.7771   18.5337 C.ar        1 MOL       0.0398
     37 CAL        34.9486   -2.4189   19.8655 C.2         1 MOL       0.2041
     38 OAM        33.8323   -2.1824   20.3166 O.2         1 MOL      -0.3845
     39 NBQ        36.0340   -2.3727   20.6307 N.am        1 MOL      -0.2723
     40 CBR        36.1009   -2.1023   22.0461 C.3         1 MOL       0.0723
     41 CBS        35.3055   -3.1913   22.8348 C.3         1 MOL      -0.0320
     42 CAI        35.7708   -0.6914   22.4549 C.ar        1 MOL      -0.0183
     43 CAH        35.8471   -0.3150   23.8220 C.ar        1 MOL      -0.0582
     44 CAG        35.5397    0.9929   24.2412 C.ar        1 MOL      -0.0685
     45 CAF        35.1748    1.9659   23.2986 C.ar        1 MOL      -0.0687
     46 CAK        35.1327    1.6336   21.9353 C.ar        1 MOL      -0.0685
     47 CAJ        35.4316    0.3233   21.5203 C.ar        1 MOL      -0.0582
     48 H1         42.4285   -8.9789   11.5191 H           1 MOL       0.0233
     49 H2         41.2243   -7.8730   12.1991 H           1 MOL       0.0233
     50 H3         42.6855   -7.2308   11.4190 H           1 MOL       0.0233
     51 H4         41.9385   -8.2083    9.2383 H           1 MOL       0.0315
     52 H5         39.6387   -9.1176    8.9567 H           1 MOL       0.0233
     53 H6         39.3502   -8.9739   10.7005 H           1 MOL       0.0233
     54 H7         40.5794  -10.0928   10.0898 H           1 MOL       0.0233
     55 H8         39.9986   -6.6404    8.7954 H           1 MOL       0.0522
     56 H9         41.4396   -5.8954    9.4838 H           1 MOL       0.0522
     57 H10        39.0561   -6.6919   11.0143 H           1 MOL       0.1853
     58 H11        38.9148   -5.5713   13.1257 H           1 MOL       0.1125
     59 H12        37.4883   -3.8577   11.0668 H           1 MOL       0.0674
     60 H13        35.6332   -5.5187   11.4158 H           1 MOL       0.0258
     61 H14        36.6809   -6.4511   12.4992 H           1 MOL       0.0258
     62 H15        37.0864   -6.2807   10.7767 H           1 MOL       0.0258
     63 H16        36.7530   -4.2894   13.7507 H           1 MOL       0.2102
     64 H17        40.4130   -3.7688   13.6025 H           1 MOL       0.2037
     65 H18        38.9532   -3.8561   14.3458 H           1 MOL       0.2037
     66 H19        38.3089   -1.9959   12.6043 H           1 MOL       0.0839
     67 H20        40.0459   -1.7671   12.6791 H           1 MOL       0.0839
     68 H21        38.7376   -0.3682   14.3311 H           1 MOL       0.0632
     69 H22        40.7859   -0.3515   15.3003 H           1 MOL       0.0450
     70 H23        41.0641   -2.0393   14.9771 H           1 MOL       0.0450
     71 H24        41.1894   -3.5241   16.8259 H           1 MOL       0.0557
     72 H25        40.9210   -4.0083   19.1695 H           1 MOL       0.0599
     73 H26        39.7743   -2.4355   20.6216 H           1 MOL       0.0559
     74 H27        38.9175   -0.3509   19.7166 H           1 MOL       0.0599
     75 H28        39.1955    0.1611   17.3713 H           1 MOL       0.0557
     76 H29        38.1920   -2.6840   15.9674 H           1 MOL       0.1852
     77 H30        36.3415   -1.2053   17.9545 H           1 MOL       0.0576
     78 H31        35.0662   -3.6903   14.8040 H           1 MOL       0.0566
     79 H32        35.5628   -6.5384   16.5889 H           1 MOL       0.0517
     80 H33        34.7015   -6.8876   15.0858 H           1 MOL       0.0517
     81 H34        34.0505   -7.4481   16.6412 H           1 MOL       0.0517
     82 H35        30.2560   -6.5107   15.2658 H           1 MOL       0.0487
     83 H36        31.0476   -6.8309   16.8287 H           1 MOL       0.0487
     84 H37        31.6516   -7.6102   15.3459 H           1 MOL       0.0487
     85 H38        33.8196   -4.5051   18.7138 H           1 MOL       0.0566
     86 H39        36.8723   -2.6157   20.2016 H           1 MOL       0.1875
     87 H40        37.1566   -2.2398   22.3001 H           1 MOL       0.0716
     88 H41        35.6052   -3.2161   23.8831 H           1 MOL       0.0274
     89 H42        35.5015   -4.1802   22.4128 H           1 MOL       0.0274
     90 H43        34.2321   -2.9968   22.7890 H           1 MOL       0.0274
     91 H44        36.1329   -0.9938   24.5321 H           1 MOL       0.0557
     92 H45        35.5848    1.2365   25.2344 H           1 MOL       0.0599
     93 H46        34.9525    2.9170   23.6008 H           1 MOL       0.0559
     94 H47        34.8861    2.3445   21.2455 H           1 MOL       0.0599
     95 H48        35.4090    0.1300   20.5191 H           1 MOL       0.0557
@<TRIPOS>BOND
     1     1     2   1
     2     2     3   1
     3     2     4   1
     4     4     5   1
     5     5     6  am
     6     6     7   2
     7     6     8   1
     8     8     9   1
     9     8    12   1
    10     9    10   1
    11     9    11   1
    12    12    13   1
    13    13    14   1
    14    14    15   1
    15    14    22   1
    16    15    16   1
    17    16    17  ar
    18    16    21  ar
    19    17    18  ar
    20    18    19  ar
    21    19    20  ar
    22    20    21  ar
    23    22    23  am
    24    23    24   2
    25    23    25   1
    26    25    26  ar
    27    25    27  ar
    28    26    36  ar
    29    27    28  ar
    30    28    29   1
    31    28    35  ar
    32    29    30   1
    33    29    31  am
    34    31    32   2
    35    31    33   2
    36    31    34   1
    37    35    36  ar
    38    36    37   1
    39    37    38   2
    40    37    39  am
    41    39    40   1
    42    40    41   1
    43    40    42   1
    44    42    43  ar
    45    42    47  ar
    46    43    44  ar
    47    44    45  ar
    48    45    46  ar
    49    46    47  ar
    50     1    48   1
    51     1    49   1
    52     1    50   1
    53     2    51   1
    54     3    52   1
    55     3    53   1
    56     3    54   1
    57     4    55   1
    58     4    56   1
    59     5    57   1
    60     8    58   1
    61     9    59   1
    62    10    60   1
    63    10    61   1
    64    10    62   1
    65    11    63   1
    66    12    64   1
    67    12    65   1
    68    13    66   1
    69    13    67   1
    70    14    68   1
    71    15    69   1
    72    15    70   1
    73    17    71   1
    74    18    72   1
    75    19    73   1
    76    20    74   1
    77    21    75   1
    78    22    76   1
    79    26    77   1
    80    27    78   1
    81    30    79   1
    82    30    80   1
    83    30    81   1
    84    34    82   1
    85    34    83   1
    86    34    84   1
    87    35    85   1
    88    39    86   1
    89    40    87   1
    90    41    88   1
    91    41    89   1
    92    41    90   1
    93    43    91   1
    94    44    92   1
    95    45    93   1
    96    46    94   1
    97    47    95   1
@<TRIPOS>SUBSTRUCTURE
     1  MOL      1

