@<TRIPOS>MOLECULE
4gid_ligand_051
    95    97
SMALL
GAST_HUCK
****
This file was generated by PARSER (from files_GN.cpp)

@<TRIPOS>ATOM
      1 CBK        49.5309    2.1456   14.7124 C.3         1 MOL      -0.0608
      2 CBL        49.0962    0.6606   14.5589 C.3         1 MOL      -0.0265
      3 CBM        47.9540    0.3067   15.5495 C.3         1 MOL      -0.0608
      4 CBN        48.7441    0.2791   13.0897 C.3         1 MOL       0.0334
      5 NBO        47.6618    1.0592   12.5715 N.am        1 MOL      -0.2820
      6 CBP        46.4564    0.6258   12.2085 C.2         1 MOL       0.2271
      7 OBV        46.1812   -0.5640   12.3024 O.2         1 MOL      -0.3908
      8 CBG        45.4972    1.5802   11.6576 C.3         1 MOL       0.0928
      9 CBH        45.2614    2.8318   12.5825 C.3         1 MOL       0.1121
     10 CBJ        45.0068    4.1431   11.7961 C.3         1 MOL      -0.0314
     11 OBI        44.1813    2.6543   13.5005 O.3         1 MOL      -0.3840
     12 NBF        44.2545    0.9995   11.0655 N.4         1 MOL       0.2497
     13 CAX        43.2347    0.2045   11.8120 C.3         1 MOL      -0.0062
     14 CAW        43.2641   -1.3596   11.6515 C.3         1 MOL       0.0906
     15 CAY        43.7348   -1.8902   10.2487 C.3         1 MOL       0.0089
     16 CAZ        45.1910   -2.1972   10.1861 C.ar        1 MOL      -0.0406
     17 CBA        45.7075   -3.3352   10.8509 C.ar        1 MOL      -0.0603
     18 CBB        47.0837   -3.6284   10.8234 C.ar        1 MOL      -0.0686
     19 CBC        47.9610   -2.8069   10.0956 C.ar        1 MOL      -0.0687
     20 CBD        47.4577   -1.7008    9.3922 C.ar        1 MOL      -0.0686
     21 CBE        46.0837   -1.4006    9.4345 C.ar        1 MOL      -0.0603
     22 NAV        41.9552   -1.8804   11.9605 N.am        1 MOL      -0.2761
     23 CAT        41.6837   -3.0669   12.5113 C.2         1 MOL       0.2026
     24 OAU        42.5838   -3.7859   12.9358 O.2         1 MOL      -0.3847
     25 CAP        40.3757   -3.5181   12.6092 C.ar        1 MOL       0.0397
     26 CAQ        39.4042   -2.7683   13.3098 C.ar        1 MOL      -0.0393
     27 CAO        39.9853   -4.7293   11.9919 C.ar        1 MOL      -0.0214
     28 CAN        38.6578   -5.2027   12.0737 C.ar        1 MOL       0.0754
     29 NAE        38.2791   -6.3097   11.3506 N.am        1 MOL      -0.1796
     30 CBT        37.2499   -6.2269   10.3487 C.3         1 MOL       0.0445
     31 SAB        39.1193   -7.7756   11.4781 S.o2        1 MOL       0.0593
     32 OAC        40.0218   -7.7744   12.7859 O.2         1 MOL      -0.1500
     33 OAD        38.0881   -8.9622   11.7396 O.2         1 MOL      -0.1500
     34 CAA        40.1738   -8.1809   10.0682 C.3         1 MOL       0.0790
     35 CAS        37.7267   -4.4704   12.8422 C.ar        1 MOL      -0.0214
     36 CAR        38.0860   -3.2526   13.4692 C.ar        1 MOL       0.0398
     37 CAL        37.1660   -2.5372   14.2203 C.2         1 MOL       0.2041
     38 OAM        36.7400   -1.4799   13.7555 O.2         1 MOL      -0.3845
     39 NBQ        36.7366   -3.0189   15.3783 N.am        1 MOL      -0.2723
     40 CBR        35.7258   -2.4590   16.2368 C.3         1 MOL       0.0723
     41 CBS        36.2242   -2.4006   17.7041 C.3         1 MOL      -0.0320
     42 CAI        34.4861   -3.2736   16.0574 C.ar        1 MOL      -0.0183
     43 CAH        33.3978   -2.7691   15.3034 C.ar        1 MOL      -0.0582
     44 CAG        32.2422   -3.5429   15.0826 C.ar        1 MOL      -0.0685
     45 CAF        32.1459   -4.8339   15.6302 C.ar        1 MOL      -0.0687
     46 CAK        33.2133   -5.3557   16.3799 C.ar        1 MOL      -0.0685
     47 CAJ        34.3787   -4.5901   16.5751 C.ar        1 MOL      -0.0582
     48 H1         49.8823    2.3291   15.7312 H           1 MOL       0.0233
     49 H2         48.6967    2.8235   14.5070 H           1 MOL       0.0233
     50 H3         50.3474    2.3780   14.0254 H           1 MOL       0.0233
     51 H4         49.9610    0.0523   14.8398 H           1 MOL       0.0315
     52 H5         47.6550   -0.7361   15.4270 H           1 MOL       0.0233
     53 H6         47.0811    0.9434   15.3870 H           1 MOL       0.0233
     54 H7         48.2962    0.4425   16.5774 H           1 MOL       0.0233
     55 H8         48.5416   -0.7941   13.0329 H           1 MOL       0.0522
     56 H9         49.6166    0.4639   12.4526 H           1 MOL       0.0522
     57 H10        47.8370    2.0131   12.4551 H           1 MOL       0.1853
     58 H11        46.0006    1.9612   10.7654 H           1 MOL       0.1125
     59 H12        46.1577    3.0073   13.1885 H           1 MOL       0.0674
     60 H13        44.8032    4.9638   12.4875 H           1 MOL       0.0258
     61 H14        44.1545    4.0328   11.1281 H           1 MOL       0.0258
     62 H15        45.8870    4.4052   11.2045 H           1 MOL       0.0258
     63 H16        44.3734    1.8202   13.9756 H           1 MOL       0.2102
     64 H17        44.5522    0.4174   10.2856 H           1 MOL       0.2037
     65 H18        43.7476    1.7846   10.6559 H           1 MOL       0.2037
     66 H19        42.2630    0.5547   11.4406 H           1 MOL       0.0839
     67 H20        43.2592    0.4428   12.8769 H           1 MOL       0.0839
     68 H21        43.9218   -1.7470   12.4316 H           1 MOL       0.0632
     69 H22        43.4522   -1.1616    9.4876 H           1 MOL       0.0450
     70 H23        43.1959   -2.8071    9.9901 H           1 MOL       0.0450
     71 H24        45.0843   -3.9511   11.3746 H           1 MOL       0.0557
     72 H25        47.4484   -4.4422   11.3209 H           1 MOL       0.0599
     73 H26        48.9606   -3.0174   10.0728 H           1 MOL       0.0559
     74 H27        48.0899   -1.1158    8.8444 H           1 MOL       0.0599
     75 H28        45.7430   -0.5800    8.9291 H           1 MOL       0.0557
     76 H29        41.1922   -1.3668   11.6414 H           1 MOL       0.1852
     77 H30        39.6742   -1.8876   13.7671 H           1 MOL       0.0576
     78 H31        40.6734   -5.2475   11.4402 H           1 MOL       0.0566
     79 H32        36.8034   -5.2319   10.2835 H           1 MOL       0.0517
     80 H33        36.4516   -6.9423   10.5635 H           1 MOL       0.0517
     81 H34        37.6728   -6.4574    9.3703 H           1 MOL       0.0517
     82 H35        40.7251   -9.1018   10.2713 H           1 MOL       0.0487
     83 H36        40.8812   -7.3699    9.8915 H           1 MOL       0.0487
     84 H37        39.5597   -8.3242    9.1765 H           1 MOL       0.0487
     85 H38        36.7700   -4.8170   12.9240 H           1 MOL       0.0566
     86 H39        37.1597   -3.8351   15.6971 H           1 MOL       0.1875
     87 H40        35.5176   -1.4225   15.9541 H           1 MOL       0.0716
     88 H41        35.4267   -2.0387   18.3571 H           1 MOL       0.0274
     89 H42        37.0725   -1.7180   17.7880 H           1 MOL       0.0274
     90 H43        36.5474   -3.3820   18.0581 H           1 MOL       0.0274
     91 H44        33.4422   -1.8370   14.8886 H           1 MOL       0.0557
     92 H45        31.4734   -3.1666   14.5231 H           1 MOL       0.0599
     93 H46        31.3048   -5.3945   15.4796 H           1 MOL       0.0559
     94 H47        33.1479   -6.2980   16.7746 H           1 MOL       0.0599
     95 H48        35.1520   -5.0080   17.0994 H           1 MOL       0.0557
@<TRIPOS>BOND
     1     1     2   1
     2     2     3   1
     3     2     4   1
     4     4     5   1
     5     5     6  am
     6     6     7   2
     7     6     8   1
     8     8     9   1
     9     8    12   1
    10     9    10   1
    11     9    11   1
    12    12    13   1
    13    13    14   1
    14    14    15   1
    15    14    22   1
    16    15    16   1
    17    16    17  ar
    18    16    21  ar
    19    17    18  ar
    20    18    19  ar
    21    19    20  ar
    22    20    21  ar
    23    22    23  am
    24    23    24   2
    25    23    25   1
    26    25    26  ar
    27    25    27  ar
    28    26    36  ar
    29    27    28  ar
    30    28    29   1
    31    28    35  ar
    32    29    30   1
    33    29    31  am
    34    31    32   2
    35    31    33   2
    36    31    34   1
    37    35    36  ar
    38    36    37   1
    39    37    38   2
    40    37    39  am
    41    39    40   1
    42    40    41   1
    43    40    42   1
    44    42    43  ar
    45    42    47  ar
    46    43    44  ar
    47    44    45  ar
    48    45    46  ar
    49    46    47  ar
    50     1    48   1
    51     1    49   1
    52     1    50   1
    53     2    51   1
    54     3    52   1
    55     3    53   1
    56     3    54   1
    57     4    55   1
    58     4    56   1
    59     5    57   1
    60     8    58   1
    61     9    59   1
    62    10    60   1
    63    10    61   1
    64    10    62   1
    65    11    63   1
    66    12    64   1
    67    12    65   1
    68    13    66   1
    69    13    67   1
    70    14    68   1
    71    15    69   1
    72    15    70   1
    73    17    71   1
    74    18    72   1
    75    19    73   1
    76    20    74   1
    77    21    75   1
    78    22    76   1
    79    26    77   1
    80    27    78   1
    81    30    79   1
    82    30    80   1
    83    30    81   1
    84    34    82   1
    85    34    83   1
    86    34    84   1
    87    35    85   1
    88    39    86   1
    89    40    87   1
    90    41    88   1
    91    41    89   1
    92    41    90   1
    93    43    91   1
    94    44    92   1
    95    45    93   1
    96    46    94   1
    97    47    95   1
@<TRIPOS>SUBSTRUCTURE
     1  MOL      1

