@<TRIPOS>MOLECULE
4gid_ligand_022
    95    97
SMALL
GAST_HUCK
****
This file was generated by PARSER (from files_GN.cpp)

@<TRIPOS>ATOM
      1 CBK        47.5692   -3.4679   11.4190 C.3         1 MOL      -0.0608
      2 CBL        48.3366   -2.9583   12.6722 C.3         1 MOL      -0.0265
      3 CBM        49.8447   -2.7645   12.3554 C.3         1 MOL      -0.0608
      4 CBN        47.7069   -1.6842   13.3163 C.3         1 MOL       0.0334
      5 NBO        47.4302   -0.6353   12.3858 N.am        1 MOL      -0.2820
      6 CBP        46.9844    0.5771   12.6911 C.2         1 MOL       0.2271
      7 OBV        46.9528    0.9471   13.8711 O.2         1 MOL      -0.3908
      8 CBG        46.5519    1.4605   11.6171 C.3         1 MOL       0.0928
      9 CBH        46.1203    2.9226   12.0004 C.3         1 MOL       0.1121
     10 CBJ        44.6721    3.1156   12.5267 C.3         1 MOL      -0.0314
     11 OBI        47.0449    3.4445   12.9642 O.3         1 MOL      -0.3840
     12 NBF        45.5782    0.7792   10.7122 N.4         1 MOL       0.2497
     13 CAX        44.3496    0.1496   11.2755 C.3         1 MOL      -0.0062
     14 CAW        44.2192   -1.3689   10.9649 C.3         1 MOL       0.0906
     15 CAY        44.3005   -1.7029    9.4353 C.3         1 MOL       0.0089
     16 CAZ        43.7364   -3.0226    9.0149 C.ar        1 MOL      -0.0406
     17 CBA        42.3477   -3.2749    9.1167 C.ar        1 MOL      -0.0603
     18 CBB        41.8028   -4.5126    8.7180 C.ar        1 MOL      -0.0686
     19 CBC        42.6389   -5.5147    8.1988 C.ar        1 MOL      -0.0687
     20 CBD        44.0122   -5.2652    8.0543 C.ar        1 MOL      -0.0686
     21 CBE        44.5581   -4.0318    8.4564 C.ar        1 MOL      -0.0603
     22 NAV        42.9759   -1.8095   11.5415 N.am        1 MOL      -0.2761
     23 CAT        42.7858   -2.8950   12.2873 C.2         1 MOL       0.2026
     24 OAU        43.7090   -3.6545   12.5625 O.2         1 MOL      -0.3847
     25 CAP        41.4925   -3.3215   12.5313 C.ar        1 MOL       0.0397
     26 CAQ        40.5691   -2.5027   13.2182 C.ar        1 MOL      -0.0393
     27 CAO        41.0564   -4.5714   12.0245 C.ar        1 MOL      -0.0214
     28 CAN        39.7092   -4.9815   12.1267 C.ar        1 MOL       0.0754
     29 NAE        39.2716   -6.1524   11.5412 N.am        1 MOL      -0.1796
     30 CBT        38.0469   -6.2052   10.7828 C.3         1 MOL       0.0445
     31 SAB        40.1447   -7.5901   11.7318 S.o2        1 MOL       0.0593
     32 OAC        40.2144   -7.9604   13.2797 O.2         1 MOL      -0.1500
     33 OAD        39.2924   -8.7955   11.1332 O.2         1 MOL      -0.1500
     34 CAA        41.7978   -7.6949   11.0232 C.3         1 MOL       0.0790
     35 CAS        38.8091   -4.1351   12.8125 C.ar        1 MOL      -0.0214
     36 CAR        39.2236   -2.9067   13.3824 C.ar        1 MOL       0.0398
     37 CAL        38.3223   -2.1226   14.0885 C.2         1 MOL       0.2041
     38 OAM        37.2245   -1.8901   13.5911 O.2         1 MOL      -0.3845
     39 NBQ        38.6105   -1.7467   15.3320 N.am        1 MOL      -0.2723
     40 CBR        37.7426   -1.0332   16.2271 C.3         1 MOL       0.0723
     41 CBS        38.5308   -0.6106   17.4953 C.3         1 MOL      -0.0320
     42 CAI        36.5227   -1.8368   16.5615 C.ar        1 MOL      -0.0183
     43 CAH        35.2714   -1.5145   15.9794 C.ar        1 MOL      -0.0582
     44 CAG        34.1271   -2.2941   16.2338 C.ar        1 MOL      -0.0685
     45 CAF        34.2173   -3.4146   17.0760 C.ar        1 MOL      -0.0687
     46 CAK        35.4502   -3.7606   17.6546 C.ar        1 MOL      -0.0685
     47 CAJ        36.5948   -2.9823   17.3934 C.ar        1 MOL      -0.0582
     48 H1         47.9597   -4.4391   11.1002 H           1 MOL       0.0233
     49 H2         47.6694   -2.7709   10.5843 H           1 MOL       0.0233
     50 H3         46.5082   -3.5894   11.6451 H           1 MOL       0.0233
     51 H4         48.2734   -3.7499   13.4264 H           1 MOL       0.0315
     52 H5         50.3961   -2.5322   13.2697 H           1 MOL       0.0233
     53 H6         49.9894   -1.9498   11.6418 H           1 MOL       0.0233
     54 H7         50.2684   -3.6804   11.9326 H           1 MOL       0.0233
     55 H8         48.3804   -1.3101   14.0930 H           1 MOL       0.0522
     56 H9         46.7687   -1.9667   13.8021 H           1 MOL       0.0522
     57 H10        47.4685   -0.8642   11.4412 H           1 MOL       0.1853
     58 H11        47.4425    1.6017   10.9942 H           1 MOL       0.1125
     59 H12        46.2196    3.5455   11.1050 H           1 MOL       0.0674
     60 H13        44.5283    4.1600   12.8291 H           1 MOL       0.0258
     61 H14        44.4783    2.4724   13.3894 H           1 MOL       0.0258
     62 H15        43.9506    2.8879   11.7392 H           1 MOL       0.0258
     63 H16        46.7435    4.3598   13.1673 H           1 MOL       0.2102
     64 H17        46.0956    0.0497   10.2199 H           1 MOL       0.2037
     65 H18        45.2799    1.4569   10.0072 H           1 MOL       0.2037
     66 H19        43.4822    0.6688   10.8618 H           1 MOL       0.0839
     67 H20        44.3128    0.2690   12.3603 H           1 MOL       0.0839
     68 H21        45.0638   -1.8668   11.4551 H           1 MOL       0.0632
     69 H22        45.3541   -1.6457    9.1500 H           1 MOL       0.0450
     70 H23        43.7956   -0.9284    8.8557 H           1 MOL       0.0450
     71 H24        41.7176   -2.5620    9.4897 H           1 MOL       0.0557
     72 H25        40.8017   -4.6885    8.7995 H           1 MOL       0.0599
     73 H26        42.2410   -6.4081    7.9068 H           1 MOL       0.0559
     74 H27        44.6103   -5.9803    7.6337 H           1 MOL       0.0599
     75 H28        45.5627   -3.8720    8.3365 H           1 MOL       0.0557
     76 H29        42.1793   -1.3139   11.2743 H           1 MOL       0.1852
     77 H30        40.8744   -1.5973   13.5948 H           1 MOL       0.0576
     78 H31        41.7163   -5.1611   11.5094 H           1 MOL       0.0566
     79 H32        37.5659   -5.2295   10.6752 H           1 MOL       0.0517
     80 H33        37.3321   -6.8721   11.2699 H           1 MOL       0.0517
     81 H34        38.2444   -6.5811    9.7760 H           1 MOL       0.0517
     82 H35        42.1586   -8.7204   11.0871 H           1 MOL       0.0487
     83 H36        42.4785   -7.0426   11.5708 H           1 MOL       0.0487
     84 H37        41.7622   -7.3908    9.9778 H           1 MOL       0.0487
     85 H38        37.8381   -4.4340   12.9187 H           1 MOL       0.0566
     86 H39        39.4862   -1.9982   15.6749 H           1 MOL       0.1875
     87 H40        37.4633   -0.1027   15.7253 H           1 MOL       0.0716
     88 H41        37.8891   -0.0323   18.1663 H           1 MOL       0.0274
     89 H42        39.3835    0.0121   17.2183 H           1 MOL       0.0274
     90 H43        38.9113   -1.4811   18.0365 H           1 MOL       0.0274
     91 H44        35.1932   -0.7245   15.3376 H           1 MOL       0.0557
     92 H45        33.2367   -2.0542   15.7907 H           1 MOL       0.0599
     93 H46        33.3908   -3.9884   17.2564 H           1 MOL       0.0559
     94 H47        35.5191   -4.5863   18.2525 H           1 MOL       0.0599
     95 H48        37.4859   -3.2659   17.8058 H           1 MOL       0.0557
@<TRIPOS>BOND
     1     1     2   1
     2     2     3   1
     3     2     4   1
     4     4     5   1
     5     5     6  am
     6     6     7   2
     7     6     8   1
     8     8     9   1
     9     8    12   1
    10     9    10   1
    11     9    11   1
    12    12    13   1
    13    13    14   1
    14    14    15   1
    15    14    22   1
    16    15    16   1
    17    16    17  ar
    18    16    21  ar
    19    17    18  ar
    20    18    19  ar
    21    19    20  ar
    22    20    21  ar
    23    22    23  am
    24    23    24   2
    25    23    25   1
    26    25    26  ar
    27    25    27  ar
    28    26    36  ar
    29    27    28  ar
    30    28    29   1
    31    28    35  ar
    32    29    30   1
    33    29    31  am
    34    31    32   2
    35    31    33   2
    36    31    34   1
    37    35    36  ar
    38    36    37   1
    39    37    38   2
    40    37    39  am
    41    39    40   1
    42    40    41   1
    43    40    42   1
    44    42    43  ar
    45    42    47  ar
    46    43    44  ar
    47    44    45  ar
    48    45    46  ar
    49    46    47  ar
    50     1    48   1
    51     1    49   1
    52     1    50   1
    53     2    51   1
    54     3    52   1
    55     3    53   1
    56     3    54   1
    57     4    55   1
    58     4    56   1
    59     5    57   1
    60     8    58   1
    61     9    59   1
    62    10    60   1
    63    10    61   1
    64    10    62   1
    65    11    63   1
    66    12    64   1
    67    12    65   1
    68    13    66   1
    69    13    67   1
    70    14    68   1
    71    15    69   1
    72    15    70   1
    73    17    71   1
    74    18    72   1
    75    19    73   1
    76    20    74   1
    77    21    75   1
    78    22    76   1
    79    26    77   1
    80    27    78   1
    81    30    79   1
    82    30    80   1
    83    30    81   1
    84    34    82   1
    85    34    83   1
    86    34    84   1
    87    35    85   1
    88    39    86   1
    89    40    87   1
    90    41    88   1
    91    41    89   1
    92    41    90   1
    93    43    91   1
    94    44    92   1
    95    45    93   1
    96    46    94   1
    97    47    95   1
@<TRIPOS>SUBSTRUCTURE
     1  MOL      1

