@<TRIPOS>MOLECULE
4gid_ligand_042
    95    97
SMALL
GAST_HUCK
****
This file was generated by PARSER (from files_GN.cpp)

@<TRIPOS>ATOM
      1 CBK        46.6586    1.4754   13.7247 C.3         1 MOL      -0.0608
      2 CBL        46.1754    2.2252   12.4519 C.3         1 MOL      -0.0265
      3 CBM        47.2131    2.0982   11.3035 C.3         1 MOL      -0.0608
      4 CBN        44.7454    1.7927   12.0020 C.3         1 MOL       0.0334
      5 NBO        44.5488    0.3758   12.0485 N.am        1 MOL      -0.2820
      6 CBP        44.4369   -0.4770   11.0372 C.2         1 MOL       0.2271
      7 OBV        44.4894   -0.0809    9.8788 O.2         1 MOL      -0.3908
      8 CBG        44.2427   -1.8998   11.3051 C.3         1 MOL       0.0928
      9 CBH        45.4764   -2.8044   11.0057 C.3         1 MOL       0.1121
     10 CBJ        46.0970   -2.6610    9.5921 C.3         1 MOL      -0.0314
     11 OBI        46.4907   -2.5846   11.9919 O.3         1 MOL      -0.3840
     12 NBF        43.0476   -2.4201   10.5745 N.4         1 MOL       0.2497
     13 CAX        41.7556   -2.4866   11.3034 C.3         1 MOL      -0.0062
     14 CAW        41.6412   -3.5526   12.4462 C.3         1 MOL       0.0906
     15 CAY        41.9927   -5.0055   12.0127 C.3         1 MOL       0.0089
     16 CAZ        41.0717   -5.6069   11.0125 C.ar        1 MOL      -0.0406
     17 CBA        39.8899   -6.2721   11.4233 C.ar        1 MOL      -0.0603
     18 CBB        39.0421   -6.8838   10.4776 C.ar        1 MOL      -0.0686
     19 CBC        39.3681   -6.8447    9.1104 C.ar        1 MOL      -0.0687
     20 CBD        40.5407   -6.1898    8.6883 C.ar        1 MOL      -0.0686
     21 CBE        41.3837   -5.5758    9.6337 C.ar        1 MOL      -0.0603
     22 NAV        40.4148   -3.5580   13.2016 N.am        1 MOL      -0.2761
     23 CAT        39.2519   -2.9720   12.9460 C.2         1 MOL       0.2026
     24 OAU        39.0196   -2.3274   11.9343 O.2         1 MOL      -0.3847
     25 CAP        38.2177   -3.1143   13.8388 C.ar        1 MOL       0.0397
     26 CAQ        37.3271   -4.1985   13.7159 C.ar        1 MOL      -0.0393
     27 CAO        38.0203   -2.1681   14.8711 C.ar        1 MOL      -0.0214
     28 CAN        36.9156   -2.2558   15.7506 C.ar        1 MOL       0.0754
     29 NAE        36.6888   -1.2713   16.7031 N.am        1 MOL      -0.1796
     30 CBT        36.9228    0.1247   16.4461 C.3         1 MOL       0.0445
     31 SAB        36.1016   -1.6825   18.2493 S.o2        1 MOL       0.0593
     32 OAC        34.5383   -1.9721   18.2532 O.2         1 MOL      -0.1500
     33 OAD        36.8530   -2.9849   18.7601 O.2         1 MOL      -0.1500
     34 CAA        36.3999   -0.4635   19.5464 C.3         1 MOL       0.0790
     35 CAS        36.0489   -3.3692   15.6027 C.ar        1 MOL      -0.0214
     36 CAR        36.2471   -4.3615   14.6123 C.ar        1 MOL       0.0398
     37 CAL        35.4235   -5.4838   14.5348 C.2         1 MOL       0.2041
     38 OAM        34.9377   -5.9308   15.5658 O.2         1 MOL      -0.3845
     39 NBQ        35.1988   -6.0813   13.3696 N.am        1 MOL      -0.2723
     40 CBR        34.4802   -7.3061   13.1305 C.3         1 MOL       0.0723
     41 CBS        34.1769   -7.4091   11.6129 C.3         1 MOL      -0.0320
     42 CAI        33.2242   -7.4826   13.9226 C.ar        1 MOL      -0.0183
     43 CAH        32.8968   -8.7522   14.4618 C.ar        1 MOL      -0.0582
     44 CAG        31.7280   -8.9336   15.2276 C.ar        1 MOL      -0.0685
     45 CAF        30.8764   -7.8471   15.4774 C.ar        1 MOL      -0.0687
     46 CAK        31.1795   -6.5828   14.9439 C.ar        1 MOL      -0.0685
     47 CAJ        32.3326   -6.4056   14.1591 C.ar        1 MOL      -0.0582
     48 H1         47.5770    1.9251   14.1038 H           1 MOL       0.0233
     49 H2         46.8544    0.4219   13.5035 H           1 MOL       0.0233
     50 H3         45.9003    1.5262   14.5085 H           1 MOL       0.0233
     51 H4         46.1199    3.2879   12.7095 H           1 MOL       0.0315
     52 H5         46.8985    2.6889   10.4397 H           1 MOL       0.0233
     53 H6         47.3280    1.0586   10.9923 H           1 MOL       0.0233
     54 H7         48.1861    2.4747   11.6300 H           1 MOL       0.0233
     55 H8         44.5282    2.2059   11.0138 H           1 MOL       0.0522
     56 H9         44.0152    2.2319   12.6898 H           1 MOL       0.0522
     57 H10        44.5158   -0.0090   12.9371 H           1 MOL       0.1853
     58 H11        44.0719   -2.0185   12.3768 H           1 MOL       0.1125
     59 H12        45.1631   -3.8463   11.1146 H           1 MOL       0.0674
     60 H13        46.8584   -3.4287    9.4424 H           1 MOL       0.0258
     61 H14        46.5689   -1.6810    9.4787 H           1 MOL       0.0258
     62 H15        45.3275   -2.7797    8.8270 H           1 MOL       0.0258
     63 H16        47.0978   -3.3583   11.9146 H           1 MOL       0.2102
     64 H17        43.2547   -3.3532   10.2169 H           1 MOL       0.2037
     65 H18        42.8827   -1.8082    9.7704 H           1 MOL       0.2037
     66 H19        41.0064   -2.6968   10.5438 H           1 MOL       0.0839
     67 H20        41.5518   -1.5018   11.7230 H           1 MOL       0.0839
     68 H21        42.3900   -3.2630   13.1909 H           1 MOL       0.0632
     69 H22        42.0077   -5.6400   12.9021 H           1 MOL       0.0450
     70 H23        43.0179   -5.0239   11.6303 H           1 MOL       0.0450
     71 H24        39.6441   -6.3312   12.4137 H           1 MOL       0.0557
     72 H25        38.1948   -7.3682   10.7863 H           1 MOL       0.0599
     73 H26        38.7606   -7.2960    8.4263 H           1 MOL       0.0559
     74 H27        40.7836   -6.1659    7.6946 H           1 MOL       0.0599
     75 H28        42.2346   -5.1121    9.3065 H           1 MOL       0.0557
     76 H29        40.4391   -4.0929   14.0087 H           1 MOL       0.1852
     77 H30        37.4943   -4.8967   12.9850 H           1 MOL       0.0576
     78 H31        38.6987   -1.4076   14.9783 H           1 MOL       0.0566
     79 H32        37.2054    0.3329   15.4121 H           1 MOL       0.0517
     80 H33        37.7208    0.4962   17.0931 H           1 MOL       0.0517
     81 H34        36.0212    0.6994   16.6435 H           1 MOL       0.0517
     82 H35        36.0204   -0.8517   20.4932 H           1 MOL       0.0487
     83 H36        35.8777    0.4638   19.3060 H           1 MOL       0.0487
     84 H37        37.4692   -0.2685   19.6386 H           1 MOL       0.0487
     85 H38        35.2294   -3.4414   16.2081 H           1 MOL       0.0566
     86 H39        35.5861   -5.6604   12.5844 H           1 MOL       0.1875
     87 H40        35.1769   -8.1123   13.3762 H           1 MOL       0.0716
     88 H41        33.6590   -8.3426   11.3839 H           1 MOL       0.0274
     89 H42        35.1062   -7.3854   11.0411 H           1 MOL       0.0274
     90 H43        33.5516   -6.5728   11.2905 H           1 MOL       0.0274
     91 H44        33.5055   -9.5568   14.2984 H           1 MOL       0.0557
     92 H45        31.5059   -9.8577   15.6074 H           1 MOL       0.0599
     93 H46        30.0345   -7.9739   16.0467 H           1 MOL       0.0559
     94 H47        30.5618   -5.7897   15.1263 H           1 MOL       0.0599
     95 H48        32.5241   -5.4822   13.7699 H           1 MOL       0.0557
@<TRIPOS>BOND
     1     1     2   1
     2     2     3   1
     3     2     4   1
     4     4     5   1
     5     5     6  am
     6     6     7   2
     7     6     8   1
     8     8     9   1
     9     8    12   1
    10     9    10   1
    11     9    11   1
    12    12    13   1
    13    13    14   1
    14    14    15   1
    15    14    22   1
    16    15    16   1
    17    16    17  ar
    18    16    21  ar
    19    17    18  ar
    20    18    19  ar
    21    19    20  ar
    22    20    21  ar
    23    22    23  am
    24    23    24   2
    25    23    25   1
    26    25    26  ar
    27    25    27  ar
    28    26    36  ar
    29    27    28  ar
    30    28    29   1
    31    28    35  ar
    32    29    30   1
    33    29    31  am
    34    31    32   2
    35    31    33   2
    36    31    34   1
    37    35    36  ar
    38    36    37   1
    39    37    38   2
    40    37    39  am
    41    39    40   1
    42    40    41   1
    43    40    42   1
    44    42    43  ar
    45    42    47  ar
    46    43    44  ar
    47    44    45  ar
    48    45    46  ar
    49    46    47  ar
    50     1    48   1
    51     1    49   1
    52     1    50   1
    53     2    51   1
    54     3    52   1
    55     3    53   1
    56     3    54   1
    57     4    55   1
    58     4    56   1
    59     5    57   1
    60     8    58   1
    61     9    59   1
    62    10    60   1
    63    10    61   1
    64    10    62   1
    65    11    63   1
    66    12    64   1
    67    12    65   1
    68    13    66   1
    69    13    67   1
    70    14    68   1
    71    15    69   1
    72    15    70   1
    73    17    71   1
    74    18    72   1
    75    19    73   1
    76    20    74   1
    77    21    75   1
    78    22    76   1
    79    26    77   1
    80    27    78   1
    81    30    79   1
    82    30    80   1
    83    30    81   1
    84    34    82   1
    85    34    83   1
    86    34    84   1
    87    35    85   1
    88    39    86   1
    89    40    87   1
    90    41    88   1
    91    41    89   1
    92    41    90   1
    93    43    91   1
    94    44    92   1
    95    45    93   1
    96    46    94   1
    97    47    95   1
@<TRIPOS>SUBSTRUCTURE
     1  MOL      1

