@<TRIPOS>MOLECULE
4gid_ligand_064
    95    97
SMALL
GAST_HUCK
****
This file was generated by PARSER (from files_GN.cpp)

@<TRIPOS>ATOM
      1 CBK        51.7154    0.9520   15.3448 C.3         1 MOL      -0.0608
      2 CBL        50.1696    0.9900   15.1857 C.3         1 MOL      -0.0265
      3 CBM        49.4922    0.9142   16.5819 C.3         1 MOL      -0.0608
      4 CBN        49.6956    2.2353   14.3578 C.3         1 MOL       0.0334
      5 NBO        48.8741    1.8976   13.2324 N.am        1 MOL      -0.2820
      6 CBP        47.5719    1.6281   13.2463 C.2         1 MOL       0.2271
      7 OBV        46.9371    1.6423   14.2870 O.2         1 MOL      -0.3908
      8 CBG        46.8882    1.2662   12.0018 C.3         1 MOL       0.0928
      9 CBH        45.9761    2.3884   11.4088 C.3         1 MOL       0.1121
     10 CBJ        45.2951    3.3511   12.4109 C.3         1 MOL      -0.0314
     11 OBI        46.7250    3.1943   10.4982 O.3         1 MOL      -0.3840
     12 NBF        46.1283   -0.0057   12.1578 N.4         1 MOL       0.2497
     13 CAX        46.9102   -1.2604   12.3446 C.3         1 MOL      -0.0062
     14 CAW        46.5481   -2.3514   11.2914 C.3         1 MOL       0.0906
     15 CAY        46.9388   -1.9597    9.8112 C.3         1 MOL       0.0089
     16 CAZ        47.9139   -2.7792    9.0176 C.ar        1 MOL      -0.0406
     17 CBA        48.1970   -4.1485    9.2598 C.ar        1 MOL      -0.0603
     18 CBB        49.0993   -4.8664    8.4548 C.ar        1 MOL      -0.0686
     19 CBC        49.7349   -4.2364    7.3712 C.ar        1 MOL      -0.0687
     20 CBD        49.4553   -2.8861    7.0907 C.ar        1 MOL      -0.0686
     21 CBE        48.5554   -2.1710    7.9013 C.ar        1 MOL      -0.0603
     22 NAV        45.1445   -2.6641   11.4326 N.am        1 MOL      -0.2761
     23 CAT        44.4498   -3.5407   10.7215 C.2         1 MOL       0.2026
     24 OAU        44.9705   -3.9568    9.6791 O.2         1 MOL      -0.3847
     25 CAP        43.1328   -3.9145   11.0293 C.ar        1 MOL       0.0397
     26 CAQ        42.2285   -3.0586   11.7216 C.ar        1 MOL      -0.0393
     27 CAO        42.6364   -5.1923   10.6436 C.ar        1 MOL      -0.0214
     28 CAN        41.3015   -5.5932   10.8460 C.ar        1 MOL       0.0754
     29 NAE        40.8556   -6.8456   10.4244 N.am        1 MOL      -0.1796
     30 CBT        41.3248   -7.4552    9.2054 C.3         1 MOL       0.0445
     31 SAB        39.7467   -7.7257   11.3582 S.o2        1 MOL       0.0593
     32 OAC        40.2597   -7.8197   12.8631 O.2         1 MOL      -0.1500
     33 OAD        38.3070   -7.0439   11.3630 O.2         1 MOL      -0.1500
     34 CAA        39.4807   -9.4394   10.8552 C.3         1 MOL       0.0790
     35 CAS        40.4327   -4.6767   11.4774 C.ar        1 MOL      -0.0214
     36 CAR        40.8839   -3.4163   11.9456 C.ar        1 MOL       0.0398
     37 CAL        39.9865   -2.5663   12.5766 C.2         1 MOL       0.2041
     38 OAM        38.8427   -2.4963   12.1427 O.2         1 MOL      -0.3845
     39 NBQ        40.2966   -1.9914   13.7326 N.am        1 MOL      -0.2723
     40 CBR        39.4018   -1.1961   14.5427 C.3         1 MOL       0.0723
     41 CBS        40.0397   -0.9403   15.9292 C.3         1 MOL      -0.0320
     42 CAI        38.0259   -1.7789   14.6942 C.ar        1 MOL      -0.0183
     43 CAH        36.8943   -0.9272   14.8076 C.ar        1 MOL      -0.0582
     44 CAG        35.5973   -1.4580   14.8925 C.ar        1 MOL      -0.0685
     45 CAF        35.3974   -2.8486   14.8619 C.ar        1 MOL      -0.0687
     46 CAK        36.5084   -3.7093   14.7802 C.ar        1 MOL      -0.0685
     47 CAJ        37.8087   -3.1777   14.7100 C.ar        1 MOL      -0.0582
     48 H1         52.0245    0.0633   15.8964 H           1 MOL       0.0233
     49 H2         52.0693    1.8371   15.8793 H           1 MOL       0.0233
     50 H3         52.1943    0.9235   14.3642 H           1 MOL       0.0233
     51 H4         49.8934    0.0796   14.6470 H           1 MOL       0.0315
     52 H5         48.4080    0.8873   16.4817 H           1 MOL       0.0233
     53 H6         49.7644    1.7803   17.1897 H           1 MOL       0.0233
     54 H7         49.8038    0.0111   17.1105 H           1 MOL       0.0233
     55 H8         50.5558    2.7590   13.9377 H           1 MOL       0.0522
     56 H9         49.1755    2.9647   14.9865 H           1 MOL       0.0522
     57 H10        49.3145    1.8914   12.3665 H           1 MOL       0.1853
     58 H11        47.6408    1.0787   11.2313 H           1 MOL       0.1125
     59 H12        45.1807    1.9179   10.8211 H           1 MOL       0.0674
     60 H13        44.6024    4.0108   11.8826 H           1 MOL       0.0258
     61 H14        46.0466    3.9716   12.9045 H           1 MOL       0.0258
     62 H15        44.7386    2.7902   13.1660 H           1 MOL       0.0258
     63 H16        46.8990    2.6152    9.7272 H           1 MOL       0.2102
     64 H17        45.5644   -0.1209   11.3134 H           1 MOL       0.2037
     65 H18        45.4775    0.0831   12.9427 H           1 MOL       0.2037
     66 H19        46.6867   -1.6426   13.3449 H           1 MOL       0.0839
     67 H20        47.9896   -1.0860   12.3092 H           1 MOL       0.0839
     68 H21        47.1056   -3.2290   11.6174 H           1 MOL       0.0632
     69 H22        47.3302   -0.9397    9.8276 H           1 MOL       0.0450
     70 H23        46.0251   -1.9026    9.2112 H           1 MOL       0.0450
     71 H24        47.7486   -4.6587   10.0156 H           1 MOL       0.0557
     72 H25        49.2940   -5.8493    8.6574 H           1 MOL       0.0599
     73 H26        50.3926   -4.7577    6.7876 H           1 MOL       0.0559
     74 H27        49.9124   -2.4288    6.2980 H           1 MOL       0.0599
     75 H28        48.3709   -1.1908    7.6715 H           1 MOL       0.0557
     76 H29        44.6890   -2.2526   12.1849 H           1 MOL       0.1852
     77 H30        42.5302   -2.1238   12.0131 H           1 MOL       0.0576
     78 H31        43.2749   -5.8498   10.1956 H           1 MOL       0.0566
     79 H32        41.9306   -6.7827    8.5957 H           1 MOL       0.0517
     80 H33        40.4777   -7.7644    8.5890 H           1 MOL       0.0517
     81 H34        41.9278   -8.3352    9.4388 H           1 MOL       0.0517
     82 H35        38.7683   -9.9107   11.5316 H           1 MOL       0.0487
     83 H36        40.4235   -9.9821   10.8864 H           1 MOL       0.0487
     84 H37        39.0782   -9.4651    9.8431 H           1 MOL       0.0487
     85 H38        39.4475   -4.9206   11.6094 H           1 MOL       0.0566
     86 H39        41.1914   -2.1476   14.0789 H           1 MOL       0.1875
     87 H40        39.3263   -0.2268   14.0371 H           1 MOL       0.0716
     88 H41        39.3811   -0.3259   16.5461 H           1 MOL       0.0274
     89 H42        40.9855   -0.4065   15.8086 H           1 MOL       0.0274
     90 H43        40.2319   -1.8838   16.4468 H           1 MOL       0.0274
     91 H44        37.0131    0.0886   14.8211 H           1 MOL       0.0557
     92 H45        34.7910   -0.8382   14.9600 H           1 MOL       0.0599
     93 H46        34.4536   -3.2345   14.9061 H           1 MOL       0.0559
     94 H47        36.3621   -4.7200   14.7640 H           1 MOL       0.0599
     95 H48        38.6017   -3.8223   14.6481 H           1 MOL       0.0557
@<TRIPOS>BOND
     1     1     2   1
     2     2     3   1
     3     2     4   1
     4     4     5   1
     5     5     6  am
     6     6     7   2
     7     6     8   1
     8     8     9   1
     9     8    12   1
    10     9    10   1
    11     9    11   1
    12    12    13   1
    13    13    14   1
    14    14    15   1
    15    14    22   1
    16    15    16   1
    17    16    17  ar
    18    16    21  ar
    19    17    18  ar
    20    18    19  ar
    21    19    20  ar
    22    20    21  ar
    23    22    23  am
    24    23    24   2
    25    23    25   1
    26    25    26  ar
    27    25    27  ar
    28    26    36  ar
    29    27    28  ar
    30    28    29   1
    31    28    35  ar
    32    29    30   1
    33    29    31  am
    34    31    32   2
    35    31    33   2
    36    31    34   1
    37    35    36  ar
    38    36    37   1
    39    37    38   2
    40    37    39  am
    41    39    40   1
    42    40    41   1
    43    40    42   1
    44    42    43  ar
    45    42    47  ar
    46    43    44  ar
    47    44    45  ar
    48    45    46  ar
    49    46    47  ar
    50     1    48   1
    51     1    49   1
    52     1    50   1
    53     2    51   1
    54     3    52   1
    55     3    53   1
    56     3    54   1
    57     4    55   1
    58     4    56   1
    59     5    57   1
    60     8    58   1
    61     9    59   1
    62    10    60   1
    63    10    61   1
    64    10    62   1
    65    11    63   1
    66    12    64   1
    67    12    65   1
    68    13    66   1
    69    13    67   1
    70    14    68   1
    71    15    69   1
    72    15    70   1
    73    17    71   1
    74    18    72   1
    75    19    73   1
    76    20    74   1
    77    21    75   1
    78    22    76   1
    79    26    77   1
    80    27    78   1
    81    30    79   1
    82    30    80   1
    83    30    81   1
    84    34    82   1
    85    34    83   1
    86    34    84   1
    87    35    85   1
    88    39    86   1
    89    40    87   1
    90    41    88   1
    91    41    89   1
    92    41    90   1
    93    43    91   1
    94    44    92   1
    95    45    93   1
    96    46    94   1
    97    47    95   1
@<TRIPOS>SUBSTRUCTURE
     1  MOL      1

