@<TRIPOS>MOLECULE
4gqq_ligand_009
    27    27
SMALL
GAST_HUCK
****
This file was generated by PARSER (from files_GN.cpp)

@<TRIPOS>ATOM
      1 C5'         9.3430  -21.1533  118.8550 C.3         1 MOL      -0.0374
      2 C4'         8.0711  -20.4305  118.3690 C.3         1 MOL       0.0721
      3 O2'         8.3007  -19.8566  117.0754 O.3         1 MOL      -0.2816
      4 C3'         7.4543  -19.0345  116.4013 C.2         1 MOL       0.2442
      5 O1'         6.2664  -18.6649  116.9495 O.2         1 MOL      -0.3669
      6 C2'         7.8496  -18.6037  115.1504 C.2         1 MOL       0.0162
      7 C1'         7.0336  -18.0264  114.2427 C.2         1 MOL      -0.0475
      8 C1          7.4246  -17.5559  112.9860 C.ar        1 MOL      -0.0328
      9 C2          6.4495  -17.4159  111.9652 C.ar        1 MOL      -0.0287
     10 C6          8.7556  -17.1646  112.6827 C.ar        1 MOL      -0.0672
     11 C5          9.1051  -16.6938  111.4040 C.ar        1 MOL      -0.0342
     12 C4          8.1228  -16.5878  110.4028 C.ar        1 MOL       0.1232
     13 O4          8.4790  -16.1664  109.1646 O.3         1 MOL      -0.3320
     14 C3          6.7891  -16.9553  110.6794 C.ar        1 MOL       0.1218
     15 O3          5.8217  -16.8991  109.7248 O.3         1 MOL      -0.3356
     16 H1          9.1613  -21.6129  119.8346 H           1 MOL       0.0255
     17 H2         10.1710  -20.4485  118.9462 H           1 MOL       0.0255
     18 H3          9.6205  -21.9414  118.1458 H           1 MOL       0.0255
     19 H4          7.7974  -19.6505  119.0867 H           1 MOL       0.0607
     20 H5          7.2605  -21.1625  118.3077 H           1 MOL       0.0607
     21 H6          8.8032  -18.7566  114.9077 H           1 MOL       0.0617
     22 H7          6.0599  -17.9964  114.4525 H           1 MOL       0.0733
     23 H8          5.4792  -17.6779  112.1405 H           1 MOL       0.0541
     24 H9          9.4889  -17.1981  113.3935 H           1 MOL       0.0547
     25 H10        10.0702  -16.4184  111.2069 H           1 MOL       0.0531
     26 H11         8.2401  -15.2166  109.1437 H           1 MOL       0.2473
     27 H12         5.9744  -16.0659  109.2239 H           1 MOL       0.2444
@<TRIPOS>BOND
     1     1     2   1
     2     2     3   1
     3     3     4   1
     4     4     5   2
     5     4     6   1
     6     6     7   2
     7     7     8   1
     8     8     9  ar
     9     8    10  ar
    10     9    14  ar
    11    10    11  ar
    12    11    12  ar
    13    12    13   1
    14    12    14  ar
    15    14    15   1
    16     1    16   1
    17     1    17   1
    18     1    18   1
    19     2    19   1
    20     2    20   1
    21     6    21   1
    22     7    22   1
    23     9    23   1
    24    10    24   1
    25    11    25   1
    26    13    26   1
    27    15    27   1
@<TRIPOS>SUBSTRUCTURE
     1  MOL      1

