@<TRIPOS>MOLECULE
4gqq_ligand_006
    27    27
SMALL
GAST_HUCK
****
This file was generated by PARSER (from files_GN.cpp)

@<TRIPOS>ATOM
      1 C5'         5.6967  -15.6691  115.7943 C.3         1 MOL      -0.0374
      2 C4'         5.0834  -16.2575  114.5145 C.3         1 MOL       0.0721
      3 O2'         6.0527  -16.3157  113.4608 O.3         1 MOL      -0.2816
      4 C3'         6.0962  -17.2284  112.4554 C.2         1 MOL       0.2442
      5 O1'         5.1537  -18.2022  112.3906 O.2         1 MOL      -0.3669
      6 C2'         7.1204  -17.1832  111.5324 C.2         1 MOL       0.0162
      7 C1'         7.5869  -18.2721  110.9031 C.2         1 MOL      -0.0475
      8 C1          8.6610  -18.2494  110.0303 C.ar        1 MOL      -0.0328
      9 C2          8.4938  -17.8011  108.7008 C.ar        1 MOL      -0.0287
     10 C6          9.9166  -18.7498  110.4379 C.ar        1 MOL      -0.0672
     11 C5         10.9985  -18.7775  109.5371 C.ar        1 MOL      -0.0342
     12 C4         10.8290  -18.3274  108.2184 C.ar        1 MOL       0.1232
     13 O4         11.8760  -18.3814  107.3567 O.3         1 MOL      -0.3320
     14 C3          9.5723  -17.8556  107.7896 C.ar        1 MOL       0.1218
     15 O3          9.4088  -17.4825  106.4949 O.3         1 MOL      -0.3356
     16 H1          4.9366  -15.6213  116.5750 H           1 MOL       0.0255
     17 H2          6.0781  -14.6666  115.6051 H           1 MOL       0.0255
     18 H3          6.5161  -16.3038  116.1393 H           1 MOL       0.0255
     19 H4          4.2592  -15.6343  114.1796 H           1 MOL       0.0607
     20 H5          4.6952  -17.2512  114.7462 H           1 MOL       0.0607
     21 H6          7.5689  -16.3054  111.3899 H           1 MOL       0.0617
     22 H7          7.2695  -19.1684  111.1895 H           1 MOL       0.0733
     23 H8          7.5838  -17.4598  108.3756 H           1 MOL       0.0541
     24 H9         10.0504  -19.1010  111.3899 H           1 MOL       0.0547
     25 H10        11.9062  -19.1251  109.8480 H           1 MOL       0.0531
     26 H11        11.8191  -19.2734  106.9500 H           1 MOL       0.2473
     27 H12         8.4772  -17.6987  106.2684 H           1 MOL       0.2444
@<TRIPOS>BOND
     1     1     2   1
     2     2     3   1
     3     3     4   1
     4     4     5   2
     5     4     6   1
     6     6     7   2
     7     7     8   1
     8     8     9  ar
     9     8    10  ar
    10     9    14  ar
    11    10    11  ar
    12    11    12  ar
    13    12    13   1
    14    12    14  ar
    15    14    15   1
    16     1    16   1
    17     1    17   1
    18     1    18   1
    19     2    19   1
    20     2    20   1
    21     6    21   1
    22     7    22   1
    23     9    23   1
    24    10    24   1
    25    11    25   1
    26    13    26   1
    27    15    27   1
@<TRIPOS>SUBSTRUCTURE
     1  MOL      1

