@<TRIPOS>MOLECULE
4gqq_ligand_017
    27    27
SMALL
GAST_HUCK
****
This file was generated by PARSER (from files_GN.cpp)

@<TRIPOS>ATOM
      1 C5'         5.7315  -17.0644  111.7824 C.3         1 MOL      -0.0374
      2 C4'         4.7605  -17.3123  112.9520 C.3         1 MOL       0.0721
      3 O2'         5.4908  -17.6541  114.1404 O.3         1 MOL      -0.2816
      4 C3'         5.2876  -17.2025  115.4112 C.2         1 MOL       0.2442
      5 O1'         4.2765  -16.3376  115.6681 O.2         1 MOL      -0.3669
      6 C2'         6.0868  -17.6064  116.4678 C.2         1 MOL       0.0162
      7 C1'         6.9243  -18.6633  116.4525 C.2         1 MOL      -0.0475
      8 C1          7.7702  -19.0803  117.4993 C.ar        1 MOL      -0.0328
      9 C2          7.5557  -18.7396  118.8623 C.ar        1 MOL      -0.0287
     10 C6          8.8935  -19.9036  117.2111 C.ar        1 MOL      -0.0672
     11 C5          9.7625  -20.3500  118.2255 C.ar        1 MOL      -0.0342
     12 C4          9.5327  -19.9828  119.5629 C.ar        1 MOL       0.1232
     13 O4         10.3725  -20.4047  120.5375 O.3         1 MOL      -0.3320
     14 C3          8.4214  -19.1813  119.8800 C.ar        1 MOL       0.1218
     15 O3          8.1671  -18.8372  121.1642 O.3         1 MOL      -0.3356
     16 H1          5.1700  -16.8355  110.8756 H           1 MOL       0.0255
     17 H2          6.3410  -17.9526  111.6013 H           1 MOL       0.0255
     18 H3          6.3887  -16.2230  112.0102 H           1 MOL       0.0255
     19 H4          4.1025  -18.1466  112.7034 H           1 MOL       0.0607
     20 H5          4.1408  -16.4235  113.0925 H           1 MOL       0.0607
     21 H6          6.0478  -17.0376  117.2799 H           1 MOL       0.0617
     22 H7          6.9737  -19.1906  115.6076 H           1 MOL       0.0733
     23 H8          6.7438  -18.1874  119.1448 H           1 MOL       0.0541
     24 H9          9.1000  -20.1798  116.2458 H           1 MOL       0.0547
     25 H10        10.5684  -20.9347  117.9906 H           1 MOL       0.0531
     26 H11        11.0194  -19.6757  120.6334 H           1 MOL       0.2473
     27 H12         8.6802  -18.0140  121.3049 H           1 MOL       0.2444
@<TRIPOS>BOND
     1     1     2   1
     2     2     3   1
     3     3     4   1
     4     4     5   2
     5     4     6   1
     6     6     7   2
     7     7     8   1
     8     8     9  ar
     9     8    10  ar
    10     9    14  ar
    11    10    11  ar
    12    11    12  ar
    13    12    13   1
    14    12    14  ar
    15    14    15   1
    16     1    16   1
    17     1    17   1
    18     1    18   1
    19     2    19   1
    20     2    20   1
    21     6    21   1
    22     7    22   1
    23     9    23   1
    24    10    24   1
    25    11    25   1
    26    13    26   1
    27    15    27   1
@<TRIPOS>SUBSTRUCTURE
     1  MOL      1

