@<TRIPOS>MOLECULE
4gqq_ligand_002
    27    27
SMALL
GAST_HUCK
****
This file was generated by PARSER (from files_GN.cpp)

@<TRIPOS>ATOM
      1 C5'         4.6026  -12.7020  120.7484 C.3         1 MOL      -0.0374
      2 C4'         5.5649  -13.8655  121.0399 C.3         1 MOL       0.0721
      3 O2'         5.5789  -14.7942  119.9544 O.3         1 MOL      -0.2816
      4 C3'         6.6537  -15.2676  119.2776 C.2         1 MOL       0.2442
      5 O1'         7.9159  -14.9187  119.5995 O.2         1 MOL      -0.3669
      6 C2'         6.4696  -16.1726  118.2698 C.2         1 MOL       0.0162
      7 C1'         6.4085  -15.7862  116.9853 C.2         1 MOL      -0.0475
      8 C1          6.2912  -16.6700  115.9286 C.ar        1 MOL      -0.0328
      9 C2          5.3030  -16.4482  114.9415 C.ar        1 MOL      -0.0287
     10 C6          7.1582  -17.7793  115.7863 C.ar        1 MOL      -0.0672
     11 C5          7.0471  -18.6309  114.6731 C.ar        1 MOL      -0.0342
     12 C4          6.0511  -18.4088  113.7020 C.ar        1 MOL       0.1232
     13 O4          5.9434  -19.2157  112.6142 O.3         1 MOL      -0.3320
     14 C3          5.1720  -17.3201  113.8448 C.ar        1 MOL       0.1218
     15 O3          4.1658  -17.1273  112.9621 O.3         1 MOL      -0.3356
     16 H1          4.6099  -12.0020  121.5851 H           1 MOL       0.0255
     17 H2          3.5883  -13.0770  120.6107 H           1 MOL       0.0255
     18 H3          4.9126  -12.1712  119.8461 H           1 MOL       0.0255
     19 H4          5.2309  -14.3934  121.9330 H           1 MOL       0.0607
     20 H5          6.5602  -13.4652  121.2301 H           1 MOL       0.0607
     21 H6          6.3613  -17.1253  118.5221 H           1 MOL       0.0617
     22 H7          6.4116  -14.8195  116.7702 H           1 MOL       0.0733
     23 H8          4.6527  -15.6606  115.0352 H           1 MOL       0.0541
     24 H9          7.9048  -17.9530  116.4653 H           1 MOL       0.0547
     25 H10         7.6972  -19.4180  114.5733 H           1 MOL       0.0531
     26 H11         6.6694  -19.8767  112.6876 H           1 MOL       0.2473
     27 H12         4.4164  -16.3519  112.4315 H           1 MOL       0.2444
@<TRIPOS>BOND
     1     1     2   1
     2     2     3   1
     3     3     4   1
     4     4     5   2
     5     4     6   1
     6     6     7   2
     7     7     8   1
     8     8     9  ar
     9     8    10  ar
    10     9    14  ar
    11    10    11  ar
    12    11    12  ar
    13    12    13   1
    14    12    14  ar
    15    14    15   1
    16     1    16   1
    17     1    17   1
    18     1    18   1
    19     2    19   1
    20     2    20   1
    21     6    21   1
    22     7    22   1
    23     9    23   1
    24    10    24   1
    25    11    25   1
    26    13    26   1
    27    15    27   1
@<TRIPOS>SUBSTRUCTURE
     1  MOL      1

