@<TRIPOS>MOLECULE
4gqq_ligand_016
    27    27
SMALL
GAST_HUCK
****
This file was generated by PARSER (from files_GN.cpp)

@<TRIPOS>ATOM
      1 C5'        11.8945  -13.5860  117.7380 C.3         1 MOL      -0.0374
      2 C4'        11.8180  -15.1185  117.8945 C.3         1 MOL       0.0721
      3 O2'        10.6946  -15.6218  117.1630 O.3         1 MOL      -0.2816
      4 C3'        10.3182  -16.9272  117.0389 C.2         1 MOL       0.2442
      5 O1'        11.0585  -17.8998  117.6278 O.2         1 MOL      -0.3669
      6 C2'         9.2121  -17.2948  116.2966 C.2         1 MOL       0.0162
      7 C1'         8.3426  -16.4251  115.7429 C.2         1 MOL      -0.0475
      8 C1          7.2316  -16.7578  114.9600 C.ar        1 MOL      -0.0328
      9 C2          7.1468  -17.9520  114.1975 C.ar        1 MOL      -0.0287
     10 C6          6.1553  -15.8399  114.8716 C.ar        1 MOL      -0.0672
     11 C5          5.0293  -16.1163  114.0767 C.ar        1 MOL      -0.0342
     12 C4          4.9619  -17.3048  113.3285 C.ar        1 MOL       0.1232
     13 O4          3.8707  -17.5708  112.5648 O.3         1 MOL      -0.3320
     14 C3          6.0267  -18.2214  113.3828 C.ar        1 MOL       0.1218
     15 O3          5.9837  -19.3322  112.6030 O.3         1 MOL      -0.3356
     16 H1         12.7393  -13.1973  118.3122 H           1 MOL       0.0255
     17 H2         10.9717  -13.1252  118.1032 H           1 MOL       0.0255
     18 H3         12.0329  -13.3253  116.6871 H           1 MOL       0.0255
     19 H4         11.7117  -15.3721  118.9531 H           1 MOL       0.0607
     20 H5         12.7384  -15.5682  117.5095 H           1 MOL       0.0607
     21 H6          9.0466  -18.2688  116.1968 H           1 MOL       0.0617
     22 H7          8.4735  -15.4585  115.9449 H           1 MOL       0.0733
     23 H8          7.9180  -18.6215  114.1920 H           1 MOL       0.0541
     24 H9          6.1720  -14.9619  115.3988 H           1 MOL       0.0547
     25 H10         4.2579  -15.4484  114.0427 H           1 MOL       0.0531
     26 H11         3.7040  -16.7623  112.0352 H           1 MOL       0.2473
     27 H12         6.7295  -19.9006  112.8854 H           1 MOL       0.2444
@<TRIPOS>BOND
     1     1     2   1
     2     2     3   1
     3     3     4   1
     4     4     5   2
     5     4     6   1
     6     6     7   2
     7     7     8   1
     8     8     9  ar
     9     8    10  ar
    10     9    14  ar
    11    10    11  ar
    12    11    12  ar
    13    12    13   1
    14    12    14  ar
    15    14    15   1
    16     1    16   1
    17     1    17   1
    18     1    18   1
    19     2    19   1
    20     2    20   1
    21     6    21   1
    22     7    22   1
    23     9    23   1
    24    10    24   1
    25    11    25   1
    26    13    26   1
    27    15    27   1
@<TRIPOS>SUBSTRUCTURE
     1  MOL      1

