@<TRIPOS>MOLECULE
4gqq_ligand_013
    27    27
SMALL
GAST_HUCK
****
This file was generated by PARSER (from files_GN.cpp)

@<TRIPOS>ATOM
      1 C5'         5.8628  -18.7389  113.2351 C.3         1 MOL      -0.0374
      2 C4'         5.2566  -17.3930  112.7906 C.3         1 MOL       0.0721
      3 O2'         6.2119  -16.3349  112.9655 O.3         1 MOL      -0.2816
      4 C3'         6.0447  -15.1206  113.5593 C.2         1 MOL       0.2442
      5 O1'         4.8311  -14.7890  114.0623 O.2         1 MOL      -0.3669
      6 C2'         7.1141  -14.2475  113.6513 C.2         1 MOL       0.0162
      7 C1'         7.0645  -13.0673  114.2906 C.2         1 MOL      -0.0475
      8 C1          8.1067  -12.1375  114.4319 C.ar        1 MOL      -0.0328
      9 C2          9.4751  -12.4687  114.2786 C.ar        1 MOL      -0.0287
     10 C6          7.7878  -10.7965  114.7616 C.ar        1 MOL      -0.0672
     11 C5          8.7942   -9.8255  114.9340 C.ar        1 MOL      -0.0342
     12 C4         10.1458  -10.1820  114.7681 C.ar        1 MOL       0.1232
     13 O4         11.1068   -9.2417  114.9085 O.3         1 MOL      -0.3320
     14 C3         10.4828  -11.5072  114.4442 C.ar        1 MOL       0.1218
     15 O3         11.7826  -11.8521  114.2889 O.3         1 MOL      -0.3356
     16 H1          5.1265  -19.5316  113.1037 H           1 MOL       0.0255
     17 H2          6.1486  -18.6995  114.2862 H           1 MOL       0.0255
     18 H3          6.7445  -18.9747  112.6326 H           1 MOL       0.0255
     19 H4          4.3433  -17.2200  113.3587 H           1 MOL       0.0607
     20 H5          5.0005  -17.4363  111.7272 H           1 MOL       0.0607
     21 H6          7.9390  -14.5148  113.1763 H           1 MOL       0.0617
     22 H7          6.1885  -12.8014  114.6778 H           1 MOL       0.0733
     23 H8          9.7683  -13.4245  114.0652 H           1 MOL       0.0541
     24 H9          6.8130  -10.5084  114.8815 H           1 MOL       0.0547
     25 H10         8.5347   -8.8634  115.1559 H           1 MOL       0.0531
     26 H11        11.3009   -9.2193  115.8745 H           1 MOL       0.2473
     27 H12        12.0755  -12.1393  115.1825 H           1 MOL       0.2444
@<TRIPOS>BOND
     1     1     2   1
     2     2     3   1
     3     3     4   1
     4     4     5   2
     5     4     6   1
     6     6     7   2
     7     7     8   1
     8     8     9  ar
     9     8    10  ar
    10     9    14  ar
    11    10    11  ar
    12    11    12  ar
    13    12    13   1
    14    12    14  ar
    15    14    15   1
    16     1    16   1
    17     1    17   1
    18     1    18   1
    19     2    19   1
    20     2    20   1
    21     6    21   1
    22     7    22   1
    23     9    23   1
    24    10    24   1
    25    11    25   1
    26    13    26   1
    27    15    27   1
@<TRIPOS>SUBSTRUCTURE
     1  MOL      1

