@<TRIPOS>MOLECULE
4gqq_ligand_011
    27    27
SMALL
GAST_HUCK
****
This file was generated by PARSER (from files_GN.cpp)

@<TRIPOS>ATOM
      1 C5'         6.8450  -15.5217  120.4949 C.3         1 MOL      -0.0374
      2 C4'         8.2602  -15.2139  119.9414 C.3         1 MOL       0.0721
      3 O2'         8.3318  -15.5433  118.5525 O.3         1 MOL      -0.2816
      4 C3'         7.9414  -14.7110  117.5415 C.2         1 MOL       0.2442
      5 O1'         7.5239  -13.4298  117.7870 O.2         1 MOL      -0.3669
      6 C2'         7.9084  -15.2376  116.2866 C.2         1 MOL       0.0162
      7 C1'         6.7485  -15.3941  115.6084 C.2         1 MOL      -0.0475
      8 C1          6.7339  -15.8993  114.3266 C.ar        1 MOL      -0.0328
      9 C2          6.3427  -17.2331  114.0724 C.ar        1 MOL      -0.0287
     10 C6          7.1192  -15.0729  113.2491 C.ar        1 MOL      -0.0672
     11 C5          7.1194  -15.5748  111.9357 C.ar        1 MOL      -0.0342
     12 C4          6.7386  -16.9069  111.6861 C.ar        1 MOL       0.1232
     13 O4          6.7458  -17.3521  110.3990 O.3         1 MOL      -0.3320
     14 C3          6.3731  -17.7482  112.7615 C.ar        1 MOL       0.1218
     15 O3          6.0291  -19.0270  112.5168 O.3         1 MOL      -0.3356
     16 H1          6.8369  -15.3778  121.5819 H           1 MOL       0.0255
     17 H2          6.5722  -16.5611  120.2649 H           1 MOL       0.0255
     18 H3          6.0983  -14.8569  120.0448 H           1 MOL       0.0255
     19 H4          8.9876  -15.8311  120.4713 H           1 MOL       0.0607
     20 H5          8.5140  -14.1588  120.1246 H           1 MOL       0.0607
     21 H6          8.7658  -15.6242  115.9049 H           1 MOL       0.0617
     22 H7          5.8606  -15.2450  116.0563 H           1 MOL       0.0733
     23 H8          6.0670  -17.8464  114.8361 H           1 MOL       0.0541
     24 H9          7.4037  -14.0916  113.4116 H           1 MOL       0.0547
     25 H10         7.3681  -14.9404  111.1494 H           1 MOL       0.0531
     26 H11         7.4178  -18.0766  110.3893 H           1 MOL       0.2473
     27 H12         6.7797  -19.5563  112.8657 H           1 MOL       0.2444
@<TRIPOS>BOND
     1     1     2   1
     2     2     3   1
     3     3     4   1
     4     4     5   2
     5     4     6   1
     6     6     7   2
     7     7     8   1
     8     8     9  ar
     9     8    10  ar
    10     9    14  ar
    11    10    11  ar
    12    11    12  ar
    13    12    13   1
    14    12    14  ar
    15    14    15   1
    16     1    16   1
    17     1    17   1
    18     1    18   1
    19     2    19   1
    20     2    20   1
    21     6    21   1
    22     7    22   1
    23     9    23   1
    24    10    24   1
    25    11    25   1
    26    13    26   1
    27    15    27   1
@<TRIPOS>SUBSTRUCTURE
     1  MOL      1

