@<TRIPOS>MOLECULE
4tmn_ligand_053
    68    69
SMALL
GAST_HUCK
****
This file was generated by PARSER (from files_GN.cpp)

@<TRIPOS>ATOM
      1 C          48.1273   14.4152  -14.7423 C.2         1 MOL       0.3232
      2 O          47.1097   15.2643  -15.0301 O.2         1 MOL      -0.3774
      3 OA         48.5198   13.4805  -15.6497 O.3         1 MOL      -0.2506
      4 CB         47.8337   13.1149  -16.8564 C.3         1 MOL       0.1113
      5 CG         48.5890   13.3819  -18.1019 C.ar        1 MOL      -0.0130
      6 CD1        49.5237   14.4409  -18.1840 C.ar        1 MOL      -0.0578
      7 CD2        48.3122   12.6286  -19.2670 C.ar        1 MOL      -0.0578
      8 CE1        50.1711   14.7317  -19.3993 C.ar        1 MOL      -0.0685
      9 CE2        48.9668   12.9121  -20.4791 C.ar        1 MOL      -0.0685
     10 CZ         49.8922   13.9692  -20.5462 C.ar        1 MOL      -0.0687
     11 N          48.7200   14.3969  -13.5285 N.am        1 MOL      -0.2403
     12 CA         48.2529   15.0846  -12.3511 C.3         1 MOL       0.1331
     13 P          49.4117   14.9108  -11.1415 P.3         1 MOL       0.0925
     14 OP1        50.3133   16.0343  -11.2502 O.co2       1 MOL      -0.6054
     15 OP2        48.8683   15.0909   -9.8134 O.co2       1 MOL      -0.6054
     16 CB         46.8295   14.5866  -11.9090 C.3         1 MOL       0.0219
     17 CG         45.7563   14.7449  -12.9391 C.ar        1 MOL      -0.0392
     18 CD1        45.1872   16.0153  -13.2055 C.ar        1 MOL      -0.0602
     19 CD2        45.2916   13.6366  -13.6909 C.ar        1 MOL      -0.0602
     20 CE1        44.2137   16.1790  -14.2131 C.ar        1 MOL      -0.0686
     21 CE2        44.3218   13.7993  -14.7003 C.ar        1 MOL      -0.0686
     22 CZ         43.7899   15.0716  -14.9692 C.ar        1 MOL      -0.0687
     23 N          50.3532   13.7186  -11.1938 N.am        1 MOL      -0.2733
     24 CA         50.1508   12.4380  -10.6374 C.3         1 MOL       0.1230
     25 C          50.4871   12.4527   -9.2146 C.2         1 MOL       0.1994
     26 O          49.5635   12.4338   -8.4063 O.2         1 MOL      -0.3949
     27 CB         50.9716   11.3747  -11.4468 C.3         1 MOL      -0.0136
     28 CG         50.8495    9.8362  -11.1028 C.3         1 MOL      -0.0429
     29 CD1        49.8755    9.4414   -9.9547 C.3         1 MOL      -0.0625
     30 CD2        50.5365    8.9830  -12.3668 C.3         1 MOL      -0.0625
     31 N          51.7518   12.5020   -8.7945 N.am        1 MOL      -0.2701
     32 CA         52.2222   12.5666   -7.4381 C.3         1 MOL       0.0916
     33 C          52.0660   11.2839   -6.7132 C.2         1 MOL       0.0598
     34 O          52.9767   10.2960   -6.8710 O.co2       1 MOL      -0.5666
     35 CB         51.6115   13.7775   -6.6842 C.3         1 MOL      -0.0300
     36 OXT        51.0322   11.0606   -5.8672 O.co2       1 MOL      -0.5666
     37 H1         46.8656   13.6134  -16.9342 H           1 MOL       0.0776
     38 H2         47.6345   12.0464  -16.7615 H           1 MOL       0.0776
     39 H3         49.7286   15.0188  -17.3671 H           1 MOL       0.0557
     40 H4         47.6245   11.8696  -19.2443 H           1 MOL       0.0557
     41 H5         50.8389   15.5061  -19.4483 H           1 MOL       0.0599
     42 H6         48.7610   12.3611  -21.3145 H           1 MOL       0.0599
     43 H7         50.3542   14.1879  -21.4312 H           1 MOL       0.0559
     44 H8         49.4969   13.8222  -13.4367 H           1 MOL       0.1888
     45 H9         48.1816   16.1557  -12.5730 H           1 MOL       0.0803
     46 H10        46.5002   15.1357  -11.0204 H           1 MOL       0.0465
     47 H11        46.9084   13.5372  -11.6134 H           1 MOL       0.0465
     48 H12        45.4863   16.8370  -12.6732 H           1 MOL       0.0557
     49 H13        45.6699   12.7020  -13.5223 H           1 MOL       0.0557
     50 H14        43.8103   17.1023  -14.3959 H           1 MOL       0.0599
     51 H15        43.9988   12.9897  -15.2380 H           1 MOL       0.0599
     52 H16        43.0914   15.1910  -15.7098 H           1 MOL       0.0559
     53 H17        51.0428   13.7854  -11.8233 H           1 MOL       0.1669
     54 H18        49.0951   12.1786  -10.7727 H           1 MOL       0.0753
     55 H19        52.0312   11.6443  -11.3963 H           1 MOL       0.0311
     56 H20        50.7074   11.5085  -12.5007 H           1 MOL       0.0311
     57 H21        51.8379    9.5019  -10.7642 H           1 MOL       0.0298
     58 H22        49.8856    8.3581   -9.7948 H           1 MOL       0.0232
     59 H23        48.8527    9.7409  -10.1893 H           1 MOL       0.0232
     60 H24        50.1830    9.9051   -9.0162 H           1 MOL       0.0232
     61 H25        51.3209    9.1181  -13.1152 H           1 MOL       0.0232
     62 H26        49.5802    9.2831  -12.8002 H           1 MOL       0.0232
     63 H27        50.4931    7.9176  -12.1226 H           1 MOL       0.0232
     64 H28        52.4451   12.4990   -9.4777 H           1 MOL       0.1875
     65 H29        53.2964   12.7557   -7.4997 H           1 MOL       0.0723
     66 H30        52.0800   13.8850   -5.7028 H           1 MOL       0.0270
     67 H31        50.5364   13.6524   -6.5497 H           1 MOL       0.0270
     68 H32        51.7778   14.6975   -7.2467 H           1 MOL       0.0270
@<TRIPOS>BOND
     1    23    24   1
     2    24    27   1
     3    24    25   1
     4    25    26   2
     5    27    28   1
     6    28    29   1
     7    28    30   1
     8    31    32   1
     9    32    35   1
    10    32    33   1
    11    33    34  ar
    12    33    36  ar
    13    25    31  am
    14     1     2   2
    15     1     3   1
    16    11     1  am
    17     3     4   1
    18     4     5   1
    19     5     6  ar
    20     5     7  ar
    21     6     8  ar
    22     7     9  ar
    23     8    10  ar
    24     9    10  ar
    25    12    11   1
    26    13    12   1
    27    12    16   1
    28    13    14  ar
    29    13    15  ar
    30    13    23  am
    31    16    17   1
    32    17    18  ar
    33    17    19  ar
    34    18    20  ar
    35    19    21  ar
    36    20    22  ar
    37    21    22  ar
    38     4    37   1
    39     4    38   1
    40     6    39   1
    41     7    40   1
    42     8    41   1
    43     9    42   1
    44    10    43   1
    45    11    44   1
    46    12    45   1
    47    16    46   1
    48    16    47   1
    49    18    48   1
    50    19    49   1
    51    20    50   1
    52    21    51   1
    53    22    52   1
    54    23    53   1
    55    24    54   1
    56    27    55   1
    57    27    56   1
    58    28    57   1
    59    29    58   1
    60    29    59   1
    61    29    60   1
    62    30    61   1
    63    30    62   1
    64    30    63   1
    65    31    64   1
    66    32    65   1
    67    35    66   1
    68    35    67   1
    69    35    68   1
@<TRIPOS>SUBSTRUCTURE
     1  MOL      1

