@<TRIPOS>MOLECULE
4tmn_ligand_043
    68    69
SMALL
GAST_HUCK
****
This file was generated by PARSER (from files_GN.cpp)

@<TRIPOS>ATOM
      1 C          52.2484   14.9554   -5.3682 C.2         1 MOL       0.3232
      2 O          53.4944   14.8993   -5.8992 O.2         1 MOL      -0.3774
      3 OA         51.7985   13.9441   -4.5867 O.3         1 MOL      -0.2506
      4 CB         52.5261   12.7814   -4.1596 C.3         1 MOL       0.1113
      5 CG         53.0117   11.9431   -5.2869 C.ar        1 MOL      -0.0130
      6 CD1        52.2096   10.8974   -5.7976 C.ar        1 MOL      -0.0578
      7 CD2        54.2776   12.1822   -5.8737 C.ar        1 MOL      -0.0578
      8 CE1        52.6603   10.1095   -6.8723 C.ar        1 MOL      -0.0685
      9 CE2        54.7191   11.4098   -6.9664 C.ar        1 MOL      -0.0685
     10 CZ         53.9100   10.3717   -7.4623 C.ar        1 MOL      -0.0687
     11 N          51.4768   16.0525   -5.5100 N.am        1 MOL      -0.2403
     12 CA         51.8156   17.2691   -6.1951 C.3         1 MOL       0.1331
     13 P          52.8324   18.2368   -5.2592 P.3         1 MOL       0.0925
     14 OP1        54.1463   17.6561   -5.1557 O.co2       1 MOL      -0.6054
     15 OP2        53.1134   19.4418   -5.9977 O.co2       1 MOL      -0.6054
     16 CB         50.4758   17.9483   -6.6176 C.3         1 MOL       0.0219
     17 CG         50.6379   19.1086   -7.5395 C.ar        1 MOL      -0.0392
     18 CD1        50.5184   20.4320   -7.0601 C.ar        1 MOL      -0.0602
     19 CD2        50.9602   18.9074   -8.9027 C.ar        1 MOL      -0.0602
     20 CE1        50.7719   21.5278   -7.9063 C.ar        1 MOL      -0.0686
     21 CE2        51.1998   20.0032   -9.7534 C.ar        1 MOL      -0.0686
     22 CZ         51.1224   21.3133   -9.2505 C.ar        1 MOL      -0.0687
     23 N          52.3244   18.6920   -3.8971 N.am        1 MOL      -0.2733
     24 CA         52.5420   18.1357   -2.6187 C.3         1 MOL       0.1230
     25 C          53.7260   18.7271   -2.0000 C.2         1 MOL       0.1994
     26 O          54.8334   18.5139   -2.4989 O.2         1 MOL      -0.3949
     27 CB         52.5787   16.5727   -2.5156 C.3         1 MOL      -0.0136
     28 CG         52.4970   15.9475   -1.0822 C.3         1 MOL      -0.0429
     29 CD1        51.0779   16.0633   -0.4623 C.3         1 MOL      -0.0625
     30 CD2        52.9485   14.4604   -1.0847 C.3         1 MOL      -0.0625
     31 N          53.6223   19.4305   -0.8666 N.am        1 MOL      -0.2701
     32 CA         54.6638   19.8942    0.0120 C.3         1 MOL       0.0916
     33 C          55.6507   20.8006   -0.6145 C.2         1 MOL       0.0598
     34 O          56.2066   20.4628   -1.8005 O.co2       1 MOL      -0.5666
     35 CB         55.3718   18.7279    0.7679 C.3         1 MOL      -0.0300
     36 OXT        56.3391   21.6716    0.1729 O.co2       1 MOL      -0.5666
     37 H1         51.8683   12.1849   -3.5241 H           1 MOL       0.0776
     38 H2         53.3614   13.1077   -3.5368 H           1 MOL       0.0776
     39 H3         51.2951   10.6973   -5.3835 H           1 MOL       0.0557
     40 H4         54.8801   12.9306   -5.5259 H           1 MOL       0.0557
     41 H5         52.0784    9.3461   -7.2258 H           1 MOL       0.0599
     42 H6         55.6276   11.6032   -7.3916 H           1 MOL       0.0599
     43 H7         54.2333    9.8046   -8.2453 H           1 MOL       0.0559
     44 H8         50.6494   16.0580   -5.0234 H           1 MOL       0.1888
     45 H9         52.3513   17.0061   -7.1045 H           1 MOL       0.0803
     46 H10        49.9253   18.2404   -5.7188 H           1 MOL       0.0465
     47 H11        49.8459   17.2144   -7.1289 H           1 MOL       0.0465
     48 H12        50.2822   20.6076   -6.0810 H           1 MOL       0.0557
     49 H13        51.0312   17.9607   -9.2849 H           1 MOL       0.0557
     50 H14        50.7097   22.4808   -7.5421 H           1 MOL       0.0599
     51 H15        51.4404   19.8487  -10.7354 H           1 MOL       0.0599
     52 H16        51.3219   22.1109   -9.8609 H           1 MOL       0.0559
     53 H17        51.8717   19.5206   -3.8891 H           1 MOL       0.1669
     54 H18        51.6757   18.4666   -2.0438 H           1 MOL       0.0753
     55 H19        53.4869   16.2262   -3.0098 H           1 MOL       0.0311
     56 H20        51.7373   16.1880   -3.0888 H           1 MOL       0.0311
     57 H21        53.1879   16.4867   -0.4340 H           1 MOL       0.0298
     58 H22        51.0636   15.6451    0.5438 H           1 MOL       0.0232
     59 H23        50.3556   15.5191   -1.0696 H           1 MOL       0.0232
     60 H24        50.7647   17.1051   -0.3936 H           1 MOL       0.0232
     61 H25        53.9521   14.3631   -1.5008 H           1 MOL       0.0232
     62 H26        52.2617   13.8499   -1.6697 H           1 MOL       0.0232
     63 H27        52.9726   14.0702   -0.0684 H           1 MOL       0.0232
     64 H28        52.7151   19.5939   -0.5375 H           1 MOL       0.1875
     65 H29        54.1451   20.4889    0.7720 H           1 MOL       0.0723
     66 H30        56.0971   19.1260    1.4912 H           1 MOL       0.0270
     67 H31        55.9069   18.0672    0.0762 H           1 MOL       0.0270
     68 H32        54.6261   18.1366    1.3120 H           1 MOL       0.0270
@<TRIPOS>BOND
     1    23    24   1
     2    24    27   1
     3    24    25   1
     4    25    26   2
     5    27    28   1
     6    28    29   1
     7    28    30   1
     8    31    32   1
     9    32    35   1
    10    32    33   1
    11    33    34  ar
    12    33    36  ar
    13    25    31  am
    14     1     2   2
    15     1     3   1
    16    11     1  am
    17     3     4   1
    18     4     5   1
    19     5     6  ar
    20     5     7  ar
    21     6     8  ar
    22     7     9  ar
    23     8    10  ar
    24     9    10  ar
    25    12    11   1
    26    13    12   1
    27    12    16   1
    28    13    14  ar
    29    13    15  ar
    30    13    23  am
    31    16    17   1
    32    17    18  ar
    33    17    19  ar
    34    18    20  ar
    35    19    21  ar
    36    20    22  ar
    37    21    22  ar
    38     4    37   1
    39     4    38   1
    40     6    39   1
    41     7    40   1
    42     8    41   1
    43     9    42   1
    44    10    43   1
    45    11    44   1
    46    12    45   1
    47    16    46   1
    48    16    47   1
    49    18    48   1
    50    19    49   1
    51    20    50   1
    52    21    51   1
    53    22    52   1
    54    23    53   1
    55    24    54   1
    56    27    55   1
    57    27    56   1
    58    28    57   1
    59    29    58   1
    60    29    59   1
    61    29    60   1
    62    30    61   1
    63    30    62   1
    64    30    63   1
    65    31    64   1
    66    32    65   1
    67    35    66   1
    68    35    67   1
    69    35    68   1
@<TRIPOS>SUBSTRUCTURE
     1  MOL      1

