@<TRIPOS>MOLECULE
4tmn_ligand_057
    68    69
SMALL
GAST_HUCK
****
This file was generated by PARSER (from files_GN.cpp)

@<TRIPOS>ATOM
      1 C          53.8860   16.2069   -4.3830 C.2         1 MOL       0.3232
      2 O          55.1283   16.7354   -4.2763 O.2         1 MOL      -0.3774
      3 OA         53.6900   14.8575   -4.3632 O.3         1 MOL      -0.2506
      4 CB         54.6906   13.8264   -4.2301 C.3         1 MOL       0.1113
      5 CG         54.6250   12.7450   -5.2469 C.ar        1 MOL      -0.0130
      6 CD1        53.5960   12.6642   -6.2158 C.ar        1 MOL      -0.0578
      7 CD2        55.6327   11.7481   -5.2545 C.ar        1 MOL      -0.0578
      8 CE1        53.5884   11.6335   -7.1764 C.ar        1 MOL      -0.0685
      9 CE2        55.6301   10.7218   -6.2175 C.ar        1 MOL      -0.0685
     10 CZ         54.6102   10.6671   -7.1832 C.ar        1 MOL      -0.0687
     11 N          52.7919   17.0056   -4.4681 N.am        1 MOL      -0.2403
     12 CA         52.7919   18.4485   -4.5324 C.3         1 MOL       0.1331
     13 P          53.4349   19.1285   -3.1415 P.3         1 MOL       0.0925
     14 OP1        54.8455   18.8605   -3.0416 O.co2       1 MOL      -0.6054
     15 OP2        53.3562   20.5651   -3.1933 O.co2       1 MOL      -0.6054
     16 CB         51.3445   18.9744   -4.8039 C.3         1 MOL       0.0219
     17 CG         50.7606   18.5835   -6.1184 C.ar        1 MOL      -0.0392
     18 CD1        51.3316   19.0517   -7.3291 C.ar        1 MOL      -0.0602
     19 CD2        49.5772   17.8153   -6.1858 C.ar        1 MOL      -0.0602
     20 CE1        50.7254   18.7654   -8.5682 C.ar        1 MOL      -0.0686
     21 CE2        48.9648   17.5339   -7.4219 C.ar        1 MOL      -0.0686
     22 CZ         49.5385   18.0134   -8.6143 C.ar        1 MOL      -0.0687
     23 N          52.6688   18.6562   -1.9159 N.am        1 MOL      -0.2733
     24 CA         53.0940   17.7100   -0.9662 C.3         1 MOL       0.1230
     25 C          52.1433   16.5897   -0.9711 C.2         1 MOL       0.1994
     26 O          50.9828   16.8135   -0.6462 O.2         1 MOL      -0.3949
     27 CB         53.1860   18.4453    0.4137 C.3         1 MOL      -0.0136
     28 CG         54.1118   17.7623    1.4769 C.3         1 MOL      -0.0429
     29 CD1        55.6065   18.1554    1.2831 C.3         1 MOL      -0.0625
     30 CD2        53.6622   18.1028    2.9245 C.3         1 MOL      -0.0625
     31 N          52.5137   15.3721   -1.3568 N.am        1 MOL      -0.2701
     32 CA         51.7177   14.1671   -1.3115 C.3         1 MOL       0.0916
     33 C          52.3113   13.1819   -0.3813 C.2         1 MOL       0.0598
     34 O          53.4714   13.4177    0.2706 O.co2       1 MOL      -0.5666
     35 CB         51.5897   13.5425   -2.7276 C.3         1 MOL      -0.0300
     36 OXT        51.6842   12.0059   -0.1442 O.co2       1 MOL      -0.5666
     37 H1         54.5439   13.3773   -3.2447 H           1 MOL       0.0776
     38 H2         55.6946   14.2548   -4.2601 H           1 MOL       0.0776
     39 H3         52.8416   13.3520   -6.2331 H           1 MOL       0.0557
     40 H4         56.3845   11.7669   -4.5605 H           1 MOL       0.0557
     41 H5         52.8430   11.5900   -7.8762 H           1 MOL       0.0599
     42 H6         56.3719   10.0151   -6.2205 H           1 MOL       0.0599
     43 H7         54.6126    9.9276   -7.8919 H           1 MOL       0.0559
     44 H8         51.9244   16.5657   -4.5124 H           1 MOL       0.1888
     45 H9         53.4239   18.7587   -5.3661 H           1 MOL       0.0803
     46 H10        51.3287   20.0664   -4.7751 H           1 MOL       0.0465
     47 H11        50.6964   18.6302   -3.9908 H           1 MOL       0.0465
     48 H12        52.1783   19.6234   -7.3184 H           1 MOL       0.0557
     49 H13        49.1293   17.4697   -5.3341 H           1 MOL       0.0557
     50 H14        51.1395   19.1161   -9.4347 H           1 MOL       0.0599
     51 H15        48.0988   16.9928   -7.4534 H           1 MOL       0.0599
     52 H16        49.0856   17.8220   -9.5113 H           1 MOL       0.0559
     53 H17        51.7999   18.9890   -1.8113 H           1 MOL       0.1669
     54 H18        54.0904   17.3240   -1.2092 H           1 MOL       0.0753
     55 H19        52.1731   18.5532    0.8143 H           1 MOL       0.0311
     56 H20        53.5517   19.4673    0.2598 H           1 MOL       0.0311
     57 H21        54.0276   16.6772    1.3669 H           1 MOL       0.0298
     58 H22        56.2386   17.6037    1.9821 H           1 MOL       0.0232
     59 H23        55.7497   19.2245    1.4582 H           1 MOL       0.0232
     60 H24        55.9412   17.9270    0.2702 H           1 MOL       0.0232
     61 H25        52.6328   17.7757    3.0889 H           1 MOL       0.0232
     62 H26        53.7118   19.1769    3.1039 H           1 MOL       0.0232
     63 H27        54.3010   17.5975    3.6528 H           1 MOL       0.0232
     64 H28        53.4271   15.2655   -1.6643 H           1 MOL       0.1875
     65 H29        50.7060   14.3794   -0.9535 H           1 MOL       0.0723
     66 H30        50.7470   12.8347   -2.7586 H           1 MOL       0.0270
     67 H31        52.4997   13.0078   -3.0139 H           1 MOL       0.0270
     68 H32        51.4013   14.3232   -3.4741 H           1 MOL       0.0270
@<TRIPOS>BOND
     1    23    24   1
     2    24    27   1
     3    24    25   1
     4    25    26   2
     5    27    28   1
     6    28    29   1
     7    28    30   1
     8    31    32   1
     9    32    35   1
    10    32    33   1
    11    33    34  ar
    12    33    36  ar
    13    25    31  am
    14     1     2   2
    15     1     3   1
    16    11     1  am
    17     3     4   1
    18     4     5   1
    19     5     6  ar
    20     5     7  ar
    21     6     8  ar
    22     7     9  ar
    23     8    10  ar
    24     9    10  ar
    25    12    11   1
    26    13    12   1
    27    12    16   1
    28    13    14  ar
    29    13    15  ar
    30    13    23  am
    31    16    17   1
    32    17    18  ar
    33    17    19  ar
    34    18    20  ar
    35    19    21  ar
    36    20    22  ar
    37    21    22  ar
    38     4    37   1
    39     4    38   1
    40     6    39   1
    41     7    40   1
    42     8    41   1
    43     9    42   1
    44    10    43   1
    45    11    44   1
    46    12    45   1
    47    16    46   1
    48    16    47   1
    49    18    48   1
    50    19    49   1
    51    20    50   1
    52    21    51   1
    53    22    52   1
    54    23    53   1
    55    24    54   1
    56    27    55   1
    57    27    56   1
    58    28    57   1
    59    29    58   1
    60    29    59   1
    61    29    60   1
    62    30    61   1
    63    30    62   1
    64    30    63   1
    65    31    64   1
    66    32    65   1
    67    35    66   1
    68    35    67   1
    69    35    68   1
@<TRIPOS>SUBSTRUCTURE
     1  MOL      1

