@<TRIPOS>MOLECULE
4tmn_ligand_070
    68    69
SMALL
GAST_HUCK
****
This file was generated by PARSER (from files_GN.cpp)

@<TRIPOS>ATOM
      1 C          51.3506   21.3892   -9.0650 C.2         1 MOL       0.3232
      2 O          51.9687   20.8001  -10.1178 O.2         1 MOL      -0.3774
      3 OA         50.6865   22.5598   -9.2164 O.3         1 MOL      -0.2506
      4 CB         50.4659   23.3027  -10.4266 C.3         1 MOL       0.1113
      5 CG         49.4413   22.7439  -11.3564 C.ar        1 MOL      -0.0130
      6 CD1        48.8923   21.4483  -11.1907 C.ar        1 MOL      -0.0578
      7 CD2        48.9725   23.5432  -12.4317 C.ar        1 MOL      -0.0578
      8 CE1        47.9197   20.9585  -12.0816 C.ar        1 MOL      -0.0685
      9 CE2        47.9984   23.0526  -13.3215 C.ar        1 MOL      -0.0685
     10 CZ         47.4786   21.7543  -13.1501 C.ar        1 MOL      -0.0687
     11 N          51.2846   20.8112   -7.8487 N.am        1 MOL      -0.2403
     12 CA         51.6948   19.4775   -7.5111 C.3         1 MOL       0.1331
     13 P          50.6142   18.3552   -8.1484 P.3         1 MOL       0.0925
     14 OP1        50.2642   18.7035   -9.4996 O.co2       1 MOL      -0.6054
     15 OP2        51.2671   17.0749   -8.2649 O.co2       1 MOL      -0.6054
     16 CB         51.8393   19.4263   -5.9525 C.3         1 MOL       0.0219
     17 CG         52.4653   18.1846   -5.4031 C.ar        1 MOL      -0.0392
     18 CD1        51.6790   17.0427   -5.1161 C.ar        1 MOL      -0.0602
     19 CD2        53.8473   18.1440   -5.1316 C.ar        1 MOL      -0.0602
     20 CE1        52.2685   15.8799   -4.5774 C.ar        1 MOL      -0.0686
     21 CE2        54.4306   16.9860   -4.5682 C.ar        1 MOL      -0.0686
     22 CZ         53.6451   15.8600   -4.2984 C.ar        1 MOL      -0.0687
     23 N          49.3453   18.2631   -7.3112 N.am        1 MOL      -0.2733
     24 CA         48.1750   17.4986   -7.5231 C.3         1 MOL       0.1230
     25 C          48.4074   16.0502   -7.4558 C.2         1 MOL       0.1994
     26 O          48.0515   15.4387   -6.4525 O.2         1 MOL      -0.3949
     27 CB         47.3598   17.9519   -8.7778 C.3         1 MOL      -0.0136
     28 CG         46.0637   17.1132   -9.0889 C.3         1 MOL      -0.0429
     29 CD1        44.7806   17.7555   -8.4989 C.3         1 MOL      -0.0625
     30 CD2        45.8933   16.8998  -10.6141 C.3         1 MOL      -0.0625
     31 N          48.9358   15.4076   -8.4897 N.am        1 MOL      -0.2701
     32 CA         49.1634   13.9998   -8.6525 C.3         1 MOL       0.0916
     33 C          47.9812   13.2069   -8.2362 C.2         1 MOL       0.0598
     34 O          47.9707   12.4340   -7.1323 O.co2       1 MOL      -0.5666
     35 CB         50.4998   13.5568   -8.0030 C.3         1 MOL      -0.0300
     36 OXT        46.8460   13.2680   -8.9715 O.co2       1 MOL      -0.5666
     37 H1         51.4131   23.4286  -10.9577 H           1 MOL       0.0776
     38 H2         50.1239   24.2847  -10.1103 H           1 MOL       0.0776
     39 H3         49.1852   20.8467  -10.4206 H           1 MOL       0.0557
     40 H4         49.3304   24.4939  -12.5640 H           1 MOL       0.0557
     41 H5         47.5399   20.0185  -11.9464 H           1 MOL       0.0599
     42 H6         47.6637   23.6410  -14.0889 H           1 MOL       0.0599
     43 H7         46.7765   21.3925  -13.7962 H           1 MOL       0.0559
     44 H8         50.9185   21.3511   -7.1256 H           1 MOL       0.1888
     45 H9         52.6857   19.2949   -7.9413 H           1 MOL       0.0803
     46 H10        50.8661   19.5806   -5.4772 H           1 MOL       0.0465
     47 H11        52.4470   20.2833   -5.6413 H           1 MOL       0.0465
     48 H12        50.6728   17.0436   -5.3008 H           1 MOL       0.0557
     49 H13        54.4446   18.9467   -5.3276 H           1 MOL       0.0557
     50 H14        51.6953   15.0623   -4.3794 H           1 MOL       0.0599
     51 H15        55.4290   16.9740   -4.3751 H           1 MOL       0.0599
     52 H16        54.0701   15.0224   -3.8921 H           1 MOL       0.0559
     53 H17        49.2859   18.9026   -6.6303 H           1 MOL       0.1669
     54 H18        47.5446   17.7631   -6.6673 H           1 MOL       0.0753
     55 H19        48.0214   17.9074   -9.6456 H           1 MOL       0.0311
     56 H20        47.0792   19.0027   -8.6600 H           1 MOL       0.0311
     57 H21        46.1621   16.1169   -8.6447 H           1 MOL       0.0298
     58 H22        43.9151   17.1144   -8.6927 H           1 MOL       0.0232
     59 H23        44.5968   18.7311   -8.9554 H           1 MOL       0.0232
     60 H24        44.8648   17.8823   -7.4211 H           1 MOL       0.0232
     61 H25        46.7563   16.3686  -11.0236 H           1 MOL       0.0232
     62 H26        45.8001   17.8608  -11.1254 H           1 MOL       0.0232
     63 H27        45.0016   16.2984  -10.8253 H           1 MOL       0.0232
     64 H28        49.1824   15.9565   -9.2497 H           1 MOL       0.1875
     65 H29        49.2782   13.8340   -9.7249 H           1 MOL       0.0723
     66 H30        50.7008   12.5068   -8.2310 H           1 MOL       0.0270
     67 H31        50.4678   13.6788   -6.9215 H           1 MOL       0.0270
     68 H32        51.3224   14.1553   -8.3986 H           1 MOL       0.0270
@<TRIPOS>BOND
     1    23    24   1
     2    24    27   1
     3    24    25   1
     4    25    26   2
     5    27    28   1
     6    28    29   1
     7    28    30   1
     8    31    32   1
     9    32    35   1
    10    32    33   1
    11    33    34  ar
    12    33    36  ar
    13    25    31  am
    14     1     2   2
    15     1     3   1
    16    11     1  am
    17     3     4   1
    18     4     5   1
    19     5     6  ar
    20     5     7  ar
    21     6     8  ar
    22     7     9  ar
    23     8    10  ar
    24     9    10  ar
    25    12    11   1
    26    13    12   1
    27    12    16   1
    28    13    14  ar
    29    13    15  ar
    30    13    23  am
    31    16    17   1
    32    17    18  ar
    33    17    19  ar
    34    18    20  ar
    35    19    21  ar
    36    20    22  ar
    37    21    22  ar
    38     4    37   1
    39     4    38   1
    40     6    39   1
    41     7    40   1
    42     8    41   1
    43     9    42   1
    44    10    43   1
    45    11    44   1
    46    12    45   1
    47    16    46   1
    48    16    47   1
    49    18    48   1
    50    19    49   1
    51    20    50   1
    52    21    51   1
    53    22    52   1
    54    23    53   1
    55    24    54   1
    56    27    55   1
    57    27    56   1
    58    28    57   1
    59    29    58   1
    60    29    59   1
    61    29    60   1
    62    30    61   1
    63    30    62   1
    64    30    63   1
    65    31    64   1
    66    32    65   1
    67    35    66   1
    68    35    67   1
    69    35    68   1
@<TRIPOS>SUBSTRUCTURE
     1  MOL      1

