@<TRIPOS>MOLECULE
4tmn_ligand_054
    68    69
SMALL
GAST_HUCK
****
This file was generated by PARSER (from files_GN.cpp)

@<TRIPOS>ATOM
      1 C          53.4401   17.1669   -2.8565 C.2         1 MOL       0.3232
      2 O          54.7949   17.1351   -2.8517 O.2         1 MOL      -0.3774
      3 OA         52.7710   18.1734   -2.2383 O.3         1 MOL      -0.2506
      4 CB         53.3551   19.2595   -1.5052 C.3         1 MOL       0.1113
      5 CG         53.7177   18.8334   -0.1322 C.ar        1 MOL      -0.0130
      6 CD1        55.0567   18.5399    0.2175 C.ar        1 MOL      -0.0578
      7 CD2        52.7088   18.6906    0.8493 C.ar        1 MOL      -0.0578
      8 CE1        55.3792   18.1176    1.5220 C.ar        1 MOL      -0.0685
      9 CE2        53.0336   18.2788    2.1546 C.ar        1 MOL      -0.0685
     10 CZ         54.3673   17.9920    2.4912 C.ar        1 MOL      -0.0687
     11 N          52.7124   16.2453   -3.5239 N.am        1 MOL      -0.2403
     12 CA         53.2416   15.1793   -4.3273 C.3         1 MOL       0.1331
     13 P          52.2058   14.9873   -5.6386 P.3         1 MOL       0.0925
     14 OP1        52.8323   14.1654   -6.6379 O.co2       1 MOL      -0.6054
     15 OP2        51.0909   14.2092   -5.1664 O.co2       1 MOL      -0.6054
     16 CB         53.4706   13.8911   -3.4427 C.3         1 MOL       0.0219
     17 CG         54.8208   13.2579   -3.5547 C.ar        1 MOL      -0.0392
     18 CD1        55.2262   12.6216   -4.7512 C.ar        1 MOL      -0.0602
     19 CD2        55.7013   13.2101   -2.4452 C.ar        1 MOL      -0.0602
     20 CE1        56.4716   11.9696   -4.8407 C.ar        1 MOL      -0.0686
     21 CE2        56.9477   12.5622   -2.5316 C.ar        1 MOL      -0.0686
     22 CZ         57.3355   11.9454   -3.7320 C.ar        1 MOL      -0.0687
     23 N          51.6863   16.2836   -6.2618 N.am        1 MOL      -0.2733
     24 CA         50.8481   16.4212   -7.3983 C.3         1 MOL       0.1230
     25 C          50.7199   17.8435   -7.7180 C.2         1 MOL       0.1994
     26 O          50.2429   18.5888   -6.8775 O.2         1 MOL      -0.3949
     27 CB         49.4361   15.7567   -7.2391 C.3         1 MOL      -0.0136
     28 CG         48.4463   15.7264   -8.4524 C.3         1 MOL      -0.0429
     29 CD1        47.6463   17.0376   -8.6825 C.3         1 MOL      -0.0625
     30 CD2        49.1181   15.2417   -9.7648 C.3         1 MOL      -0.0625
     31 N          51.0765   18.3065   -8.9186 N.am        1 MOL      -0.2701
     32 CA         51.0742   19.6614   -9.4114 C.3         1 MOL       0.0916
     33 C          51.3795   20.6904   -8.3916 C.2         1 MOL       0.0598
     34 O          52.4679   20.5248   -7.6033 O.co2       1 MOL      -0.5666
     35 CB         49.7793   19.9460  -10.2186 C.3         1 MOL      -0.0300
     36 OXT        50.5395   21.7158   -8.1426 O.co2       1 MOL      -0.5666
     37 H1         52.6239   20.0709   -1.4536 H           1 MOL       0.0776
     38 H2         54.2211   19.6492   -2.0481 H           1 MOL       0.0776
     39 H3         55.8056   18.6183   -0.4761 H           1 MOL       0.0557
     40 H4         51.7329   18.8946    0.6161 H           1 MOL       0.0557
     41 H5         56.3484   17.9016    1.7634 H           1 MOL       0.0599
     42 H6         52.2944   18.1905    2.8568 H           1 MOL       0.0599
     43 H7         54.6001   17.6918    3.4391 H           1 MOL       0.0559
     44 H8         51.7471   16.3188   -3.4605 H           1 MOL       0.1888
     45 H9         54.2012   15.4983   -4.7456 H           1 MOL       0.0803
     46 H10        52.7373   13.1132   -3.6659 H           1 MOL       0.0465
     47 H11        53.2867   14.1498   -2.3946 H           1 MOL       0.0465
     48 H12        54.6073   12.6035   -5.5625 H           1 MOL       0.0557
     49 H13        55.4267   13.6328   -1.5592 H           1 MOL       0.0557
     50 H14        56.7429   11.5006   -5.7066 H           1 MOL       0.0599
     51 H15        57.5668   12.5311   -1.7174 H           1 MOL       0.0599
     52 H16        58.2368   11.4664   -3.7945 H           1 MOL       0.0559
     53 H17        52.1017   17.0645   -5.9587 H           1 MOL       0.1669
     54 H18        51.3594   15.9253   -8.2273 H           1 MOL       0.0753
     55 H19        48.9275   16.1937   -6.3767 H           1 MOL       0.0311
     56 H20        49.6027   14.7082   -7.0052 H           1 MOL       0.0311
     57 H21        47.6891   14.9703   -8.2047 H           1 MOL       0.0298
     58 H22        46.9224   16.9057   -9.4904 H           1 MOL       0.0232
     59 H23        48.3027   17.8525   -8.9563 H           1 MOL       0.0232
     60 H24        47.0999   17.3188   -7.7815 H           1 MOL       0.0232
     61 H25        49.6763   14.3192   -9.5890 H           1 MOL       0.0232
     62 H26        49.8027   15.9991  -10.1498 H           1 MOL       0.0232
     63 H27        48.3622   15.0417  -10.5266 H           1 MOL       0.0232
     64 H28        51.3589   17.6352   -9.5597 H           1 MOL       0.1875
     65 H29        51.8938   19.7258  -10.1324 H           1 MOL       0.0723
     66 H30        49.8829   20.8784  -10.7797 H           1 MOL       0.0270
     67 H31        48.9242   20.0409   -9.5477 H           1 MOL       0.0270
     68 H32        49.5850   19.1381  -10.9306 H           1 MOL       0.0270
@<TRIPOS>BOND
     1    23    24   1
     2    24    27   1
     3    24    25   1
     4    25    26   2
     5    27    28   1
     6    28    29   1
     7    28    30   1
     8    31    32   1
     9    32    35   1
    10    32    33   1
    11    33    34  ar
    12    33    36  ar
    13    25    31  am
    14     1     2   2
    15     1     3   1
    16    11     1  am
    17     3     4   1
    18     4     5   1
    19     5     6  ar
    20     5     7  ar
    21     6     8  ar
    22     7     9  ar
    23     8    10  ar
    24     9    10  ar
    25    12    11   1
    26    13    12   1
    27    12    16   1
    28    13    14  ar
    29    13    15  ar
    30    13    23  am
    31    16    17   1
    32    17    18  ar
    33    17    19  ar
    34    18    20  ar
    35    19    21  ar
    36    20    22  ar
    37    21    22  ar
    38     4    37   1
    39     4    38   1
    40     6    39   1
    41     7    40   1
    42     8    41   1
    43     9    42   1
    44    10    43   1
    45    11    44   1
    46    12    45   1
    47    16    46   1
    48    16    47   1
    49    18    48   1
    50    19    49   1
    51    20    50   1
    52    21    51   1
    53    22    52   1
    54    23    53   1
    55    24    54   1
    56    27    55   1
    57    27    56   1
    58    28    57   1
    59    29    58   1
    60    29    59   1
    61    29    60   1
    62    30    61   1
    63    30    62   1
    64    30    63   1
    65    31    64   1
    66    32    65   1
    67    35    66   1
    68    35    67   1
    69    35    68   1
@<TRIPOS>SUBSTRUCTURE
     1  MOL      1

