@<TRIPOS>MOLECULE
4tmn_ligand_010
    68    69
SMALL
GAST_HUCK
****
This file was generated by PARSER (from files_GN.cpp)

@<TRIPOS>ATOM
      1 C          51.1642   15.3927   -7.1330 C.2         1 MOL       0.3232
      2 O          51.3311   15.3632   -8.4781 O.2         1 MOL      -0.3774
      3 OA         50.9222   14.2478   -6.4460 O.3         1 MOL      -0.2506
      4 CB         50.7996   12.9142   -6.9559 C.3         1 MOL       0.1113
      5 CG         49.6033   12.7571   -7.8252 C.ar        1 MOL      -0.0130
      6 CD1        48.3409   13.2230   -7.3931 C.ar        1 MOL      -0.0578
      7 CD2        49.7048   12.1538   -9.1034 C.ar        1 MOL      -0.0578
      8 CE1        47.2068   13.0949   -8.2183 C.ar        1 MOL      -0.0685
      9 CE2        48.5706   12.0185   -9.9242 C.ar        1 MOL      -0.0685
     10 CZ         47.3209   12.4846   -9.4818 C.ar        1 MOL      -0.0687
     11 N          51.1842   16.5375   -6.4190 N.am        1 MOL      -0.2403
     12 CA         51.3002   17.8605   -6.9635 C.3         1 MOL       0.1331
     13 P          51.6029   19.0080   -5.7712 P.3         1 MOL       0.0925
     14 OP1        52.7244   19.8320   -6.1548 O.co2       1 MOL      -0.6054
     15 OP2        50.5056   19.9366   -5.6599 O.co2       1 MOL      -0.6054
     16 CB         50.0850   18.2135   -7.8909 C.3         1 MOL       0.0219
     17 CG         48.6910   17.8423   -7.4914 C.ar        1 MOL      -0.0392
     18 CD1        48.3318   17.3259   -6.2183 C.ar        1 MOL      -0.0602
     19 CD2        47.6616   17.9971   -8.4528 C.ar        1 MOL      -0.0602
     20 CE1        47.0051   16.9427   -5.9372 C.ar        1 MOL      -0.0686
     21 CE2        46.3326   17.6262   -8.1689 C.ar        1 MOL      -0.0686
     22 CZ         46.0079   17.0842   -6.9139 C.ar        1 MOL      -0.0687
     23 N          51.7625   18.4146   -4.3809 N.am        1 MOL      -0.2733
     24 CA         52.9132   18.3821   -3.5655 C.3         1 MOL       0.1230
     25 C          53.5004   17.0388   -3.5584 C.2         1 MOL       0.1994
     26 O          54.7221   16.9264   -3.6167 O.2         1 MOL      -0.3949
     27 CB         52.4855   18.8549   -2.1340 C.3         1 MOL      -0.0136
     28 CG         53.5790   19.4429   -1.1761 C.3         1 MOL      -0.0429
     29 CD1        54.5633   18.3766   -0.6130 C.3         1 MOL      -0.0625
     30 CD2        54.3451   20.6542   -1.7836 C.3         1 MOL      -0.0625
     31 N          52.7118   15.9661   -3.5282 N.am        1 MOL      -0.2701
     32 CA         53.0830   14.5787   -3.5498 C.3         1 MOL       0.0916
     33 C          53.8676   14.2271   -2.3500 C.2         1 MOL       0.0598
     34 O          55.1373   14.6813   -2.2048 O.co2       1 MOL      -0.5666
     35 CB         53.7920   14.1264   -4.8598 C.3         1 MOL      -0.0300
     36 OXT        53.3498   13.4215   -1.3924 O.co2       1 MOL      -0.5666
     37 H1         50.7099   12.2377   -6.1023 H           1 MOL       0.0776
     38 H2         51.7236   12.6591   -7.4790 H           1 MOL       0.0776
     39 H3         48.2391   13.6719   -6.4788 H           1 MOL       0.0557
     40 H4         50.6053   11.8128   -9.4452 H           1 MOL       0.0557
     41 H5         46.2986   13.4402   -7.9002 H           1 MOL       0.0599
     42 H6         48.6537   11.5761  -10.8437 H           1 MOL       0.0599
     43 H7         46.4945   12.3813  -10.0773 H           1 MOL       0.0559
     44 H8         51.0566   16.4471   -5.4604 H           1 MOL       0.1888
     45 H9         52.2001   17.8589   -7.5902 H           1 MOL       0.0803
     46 H10        50.2792   17.7222   -8.8476 H           1 MOL       0.0465
     47 H11        50.0972   19.2839   -8.1108 H           1 MOL       0.0465
     48 H12        49.0239   17.2196   -5.4800 H           1 MOL       0.0557
     49 H13        47.8739   18.3705   -9.3837 H           1 MOL       0.0557
     50 H14        46.7693   16.5556   -5.0173 H           1 MOL       0.0599
     51 H15        45.6075   17.7342   -8.8803 H           1 MOL       0.0599
     52 H16        45.0446   16.7952   -6.7143 H           1 MOL       0.0559
     53 H17        51.0524   17.8776   -4.0874 H           1 MOL       0.1669
     54 H18        53.6602   19.1060   -3.9245 H           1 MOL       0.0753
     55 H19        51.9773   18.0304   -1.6191 H           1 MOL       0.0311
     56 H20        51.7375   19.6442   -2.2500 H           1 MOL       0.0311
     57 H21        53.0362   19.8322   -0.3009 H           1 MOL       0.0298
     58 H22        55.2087   18.8357    0.1452 H           1 MOL       0.0232
     59 H23        55.2009   17.9692   -1.4004 H           1 MOL       0.0232
     60 H24        54.0077   17.5575   -0.1430 H           1 MOL       0.0232
     61 H25        53.6361   21.3652   -2.2196 H           1 MOL       0.0232
     62 H26        55.0392   20.3202   -2.5626 H           1 MOL       0.0232
     63 H27        54.9105   21.1723   -0.9990 H           1 MOL       0.0232
     64 H28        51.7572   16.1414   -3.5075 H           1 MOL       0.1875
     65 H29        52.1352   14.0296   -3.4978 H           1 MOL       0.0723
     66 H30        53.8317   13.0341   -4.8983 H           1 MOL       0.0270
     67 H31        54.8163   14.5114   -4.9075 H           1 MOL       0.0270
     68 H32        53.2379   14.4941   -5.7273 H           1 MOL       0.0270
@<TRIPOS>BOND
     1    23    24   1
     2    24    27   1
     3    24    25   1
     4    25    26   2
     5    27    28   1
     6    28    29   1
     7    28    30   1
     8    31    32   1
     9    32    35   1
    10    32    33   1
    11    33    34  ar
    12    33    36  ar
    13    25    31  am
    14     1     2   2
    15     1     3   1
    16    11     1  am
    17     3     4   1
    18     4     5   1
    19     5     6  ar
    20     5     7  ar
    21     6     8  ar
    22     7     9  ar
    23     8    10  ar
    24     9    10  ar
    25    12    11   1
    26    13    12   1
    27    12    16   1
    28    13    14  ar
    29    13    15  ar
    30    13    23  am
    31    16    17   1
    32    17    18  ar
    33    17    19  ar
    34    18    20  ar
    35    19    21  ar
    36    20    22  ar
    37    21    22  ar
    38     4    37   1
    39     4    38   1
    40     6    39   1
    41     7    40   1
    42     8    41   1
    43     9    42   1
    44    10    43   1
    45    11    44   1
    46    12    45   1
    47    16    46   1
    48    16    47   1
    49    18    48   1
    50    19    49   1
    51    20    50   1
    52    21    51   1
    53    22    52   1
    54    23    53   1
    55    24    54   1
    56    27    55   1
    57    27    56   1
    58    28    57   1
    59    29    58   1
    60    29    59   1
    61    29    60   1
    62    30    61   1
    63    30    62   1
    64    30    63   1
    65    31    64   1
    66    32    65   1
    67    35    66   1
    68    35    67   1
    69    35    68   1
@<TRIPOS>SUBSTRUCTURE
     1  MOL      1

