@<TRIPOS>MOLECULE
4tmn_ligand_062
    68    69
SMALL
GAST_HUCK
****
This file was generated by PARSER (from files_GN.cpp)

@<TRIPOS>ATOM
      1 C          51.4091   19.7858   -7.9116 C.2         1 MOL       0.3232
      2 O          52.5183   20.3643   -7.3998 O.2         1 MOL      -0.3774
      3 OA         50.7453   20.3313   -8.9663 O.3         1 MOL      -0.2506
      4 CB         51.0762   21.5101   -9.7108 C.3         1 MOL       0.1113
      5 CG         50.3992   21.4808  -11.0300 C.ar        1 MOL      -0.0130
      6 CD1        50.5873   20.3829  -11.9025 C.ar        1 MOL      -0.0578
      7 CD2        49.5478   22.5341  -11.4390 C.ar        1 MOL      -0.0578
      8 CE1        49.9456   20.3444  -13.1551 C.ar        1 MOL      -0.0685
      9 CE2        48.9116   22.4989  -12.6934 C.ar        1 MOL      -0.0685
     10 CZ         49.1126   21.4050  -13.5527 C.ar        1 MOL      -0.0687
     11 N          50.9226   18.6170   -7.4372 N.am        1 MOL      -0.2403
     12 CA         51.5143   17.7792   -6.4299 C.3         1 MOL       0.1331
     13 P          50.8741   16.2476   -6.6650 P.3         1 MOL       0.0925
     14 OP1        51.3220   15.7973   -7.9564 O.co2       1 MOL      -0.6054
     15 OP2        51.3796   15.2916   -5.7087 O.co2       1 MOL      -0.6054
     16 CB         51.2461   18.4180   -5.0240 C.3         1 MOL       0.0219
     17 CG         52.3733   18.2918   -4.0582 C.ar        1 MOL      -0.0392
     18 CD1        52.6199   17.0729   -3.3741 C.ar        1 MOL      -0.0602
     19 CD2        53.2218   19.3968   -3.7955 C.ar        1 MOL      -0.0602
     20 CE1        53.6727   16.9706   -2.4502 C.ar        1 MOL      -0.0686
     21 CE2        54.2783   19.2928   -2.8698 C.ar        1 MOL      -0.0686
     22 CZ         54.5015   18.0786   -2.1918 C.ar        1 MOL      -0.0687
     23 N          49.3578   16.3284   -6.5861 N.am        1 MOL      -0.2733
     24 CA         48.3608   15.7878   -7.4246 C.3         1 MOL       0.1230
     25 C          48.8013   15.0015   -8.5866 C.2         1 MOL       0.1994
     26 O          48.5067   13.8152   -8.6385 O.2         1 MOL      -0.3949
     27 CB         47.4105   16.9749   -7.8121 C.3         1 MOL      -0.0136
     28 CG         46.1407   16.6709   -8.6690 C.3         1 MOL      -0.0429
     29 CD1        45.4462   15.3316   -8.3027 C.3         1 MOL      -0.0625
     30 CD2        45.1210   17.8426   -8.5951 C.3         1 MOL      -0.0625
     31 N          49.4947   15.5583   -9.5688 N.am        1 MOL      -0.2701
     32 CA         50.0139   14.9312  -10.7597 C.3         1 MOL       0.0916
     33 C          49.0501   13.9640  -11.3458 C.2         1 MOL       0.0598
     34 O          47.8387   14.4001  -11.7611 O.co2       1 MOL      -0.5666
     35 CB         51.4343   14.3486  -10.5248 C.3         1 MOL      -0.0300
     36 OXT        49.2659   12.6275  -11.3034 O.co2       1 MOL      -0.5666
     37 H1         52.1519   21.6064   -9.8601 H           1 MOL       0.0776
     38 H2         50.7455   22.3598   -9.1169 H           1 MOL       0.0776
     39 H3         51.1924   19.6055  -11.6304 H           1 MOL       0.0557
     40 H4         49.3875   23.3409  -10.8297 H           1 MOL       0.0557
     41 H5         50.0882   19.5456  -13.7766 H           1 MOL       0.0599
     42 H6         48.2969   23.2662  -12.9804 H           1 MOL       0.0599
     43 H7         48.6482   21.3774  -14.4651 H           1 MOL       0.0559
     44 H8         50.1335   18.2682   -7.8857 H           1 MOL       0.1888
     45 H9         52.5924   17.7181   -6.5773 H           1 MOL       0.0803
     46 H10        50.3423   18.0013   -4.5695 H           1 MOL       0.0465
     47 H11        51.0269   19.4838   -5.1448 H           1 MOL       0.0465
     48 H12        52.0278   16.2585   -3.5378 H           1 MOL       0.0557
     49 H13        53.0753   20.2887   -4.2777 H           1 MOL       0.0557
     50 H14        53.8385   16.0834   -1.9710 H           1 MOL       0.0599
     51 H15        54.8954   20.0925   -2.7043 H           1 MOL       0.0599
     52 H16        55.2794   17.9961   -1.5267 H           1 MOL       0.0559
     53 H17        49.0424   16.5930   -5.7433 H           1 MOL       0.1669
     54 H18        47.7886   15.1122   -6.7704 H           1 MOL       0.0753
     55 H19        47.9948   17.7182   -8.3563 H           1 MOL       0.0311
     56 H20        47.0782   17.4409   -6.8807 H           1 MOL       0.0311
     57 H21        46.4445   16.6011   -9.7156 H           1 MOL       0.0298
     58 H22        44.5722   15.1648   -8.9382 H           1 MOL       0.0232
     59 H23        45.1211   15.3487   -7.2619 H           1 MOL       0.0232
     60 H24        46.1272   14.4934   -8.4438 H           1 MOL       0.0232
     61 H25        45.6001   18.7911   -8.8516 H           1 MOL       0.0232
     62 H26        44.6992   17.9309   -7.5903 H           1 MOL       0.0232
     63 H27        44.2959   17.6847   -9.2965 H           1 MOL       0.0232
     64 H28        49.6753   16.5089   -9.4913 H           1 MOL       0.1875
     65 H29        50.1381   15.7217  -11.5012 H           1 MOL       0.0723
     66 H30        51.8300   13.9139  -11.4452 H           1 MOL       0.0270
     67 H31        51.4181   13.5743   -9.7571 H           1 MOL       0.0270
     68 H32        52.1197   15.1390  -10.2147 H           1 MOL       0.0270
@<TRIPOS>BOND
     1    23    24   1
     2    24    27   1
     3    24    25   1
     4    25    26   2
     5    27    28   1
     6    28    29   1
     7    28    30   1
     8    31    32   1
     9    32    35   1
    10    32    33   1
    11    33    34  ar
    12    33    36  ar
    13    25    31  am
    14     1     2   2
    15     1     3   1
    16    11     1  am
    17     3     4   1
    18     4     5   1
    19     5     6  ar
    20     5     7  ar
    21     6     8  ar
    22     7     9  ar
    23     8    10  ar
    24     9    10  ar
    25    12    11   1
    26    13    12   1
    27    12    16   1
    28    13    14  ar
    29    13    15  ar
    30    13    23  am
    31    16    17   1
    32    17    18  ar
    33    17    19  ar
    34    18    20  ar
    35    19    21  ar
    36    20    22  ar
    37    21    22  ar
    38     4    37   1
    39     4    38   1
    40     6    39   1
    41     7    40   1
    42     8    41   1
    43     9    42   1
    44    10    43   1
    45    11    44   1
    46    12    45   1
    47    16    46   1
    48    16    47   1
    49    18    48   1
    50    19    49   1
    51    20    50   1
    52    21    51   1
    53    22    52   1
    54    23    53   1
    55    24    54   1
    56    27    55   1
    57    27    56   1
    58    28    57   1
    59    29    58   1
    60    29    59   1
    61    29    60   1
    62    30    61   1
    63    30    62   1
    64    30    63   1
    65    31    64   1
    66    32    65   1
    67    35    66   1
    68    35    67   1
    69    35    68   1
@<TRIPOS>SUBSTRUCTURE
     1  MOL      1

