@<TRIPOS>MOLECULE
4tmn_ligand_052
    68    69
SMALL
GAST_HUCK
****
This file was generated by PARSER (from files_GN.cpp)

@<TRIPOS>ATOM
      1 C          53.4241   17.2908   -3.6757 C.2         1 MOL       0.3232
      2 O          54.7237   16.9254   -3.7890 O.2         1 MOL      -0.3774
      3 OA         53.0677   18.4034   -2.9793 O.3         1 MOL      -0.2506
      4 CB         53.9181   19.3134   -2.2786 C.3         1 MOL       0.1113
      5 CG         54.1208   18.8777   -0.8733 C.ar        1 MOL      -0.0130
      6 CD1        55.4163   18.6511   -0.3528 C.ar        1 MOL      -0.0578
      7 CD2        53.0043   18.7134   -0.0151 C.ar        1 MOL      -0.0578
      8 CE1        55.5945   18.2795    0.9935 C.ar        1 MOL      -0.0685
      9 CE2        53.1795   18.3311    1.3290 C.ar        1 MOL      -0.0685
     10 CZ         54.4785   18.1266    1.8341 C.ar        1 MOL      -0.0687
     11 N          52.4208   16.5896   -4.2417 N.am        1 MOL      -0.2403
     12 CA         52.5441   15.4627   -5.1204 C.3         1 MOL       0.1331
     13 P          51.3842   15.6202   -6.3144 P.3         1 MOL       0.0925
     14 OP1        51.5195   14.5095   -7.2293 O.co2       1 MOL      -0.6054
     15 OP2        50.0488   15.5852   -5.7687 O.co2       1 MOL      -0.6054
     16 CB         52.4892   14.1255   -4.3009 C.3         1 MOL       0.0219
     17 CG         53.8369   13.5197   -4.1298 C.ar        1 MOL      -0.0392
     18 CD1        54.4185   12.8038   -5.2011 C.ar        1 MOL      -0.0602
     19 CD2        54.5856   13.7080   -2.9455 C.ar        1 MOL      -0.0602
     20 CE1        55.7163   12.2721   -5.0884 C.ar        1 MOL      -0.0686
     21 CE2        55.8901   13.1862   -2.8378 C.ar        1 MOL      -0.0686
     22 CZ         56.4486   12.4621   -3.9050 C.ar        1 MOL      -0.0687
     23 N          51.6330   16.8986   -7.0753 N.am        1 MOL      -0.2733
     24 CA         50.8015   17.4767   -8.0471 C.3         1 MOL       0.1230
     25 C          50.8515   16.6823   -9.2684 C.2         1 MOL       0.1994
     26 O          51.8375   15.9984   -9.5071 O.2         1 MOL      -0.3949
     27 CB         51.2344   18.9691   -8.2254 C.3         1 MOL      -0.0136
     28 CG         50.7370   19.7478   -9.4870 C.3         1 MOL      -0.0429
     29 CD1        49.2349   20.1643   -9.3998 C.3         1 MOL      -0.0625
     30 CD2        51.6154   21.0002   -9.7613 C.3         1 MOL      -0.0625
     31 N          49.8297   16.7245  -10.1196 N.am        1 MOL      -0.2701
     32 CA         49.7045   15.9940  -11.3488 C.3         1 MOL       0.0916
     33 C          49.2200   16.9280  -12.3877 C.2         1 MOL       0.0598
     34 O          49.6267   18.2159  -12.3730 O.co2       1 MOL      -0.5666
     35 CB         48.7841   14.7635  -11.1291 C.3         1 MOL      -0.0300
     36 OXT        48.3949   16.5553  -13.3958 O.co2       1 MOL      -0.5666
     37 H1         53.4371   20.2921   -2.2756 H           1 MOL       0.0776
     38 H2         54.8628   19.4211   -2.8177 H           1 MOL       0.0776
     39 H3         56.2353   18.7580   -0.9526 H           1 MOL       0.0557
     40 H4         52.0523   18.8651   -0.3632 H           1 MOL       0.0557
     41 H5         56.5357   18.1275    1.3594 H           1 MOL       0.0599
     42 H6         52.3724   18.2160    1.9414 H           1 MOL       0.0599
     43 H7         54.6109   17.8626    2.8163 H           1 MOL       0.0559
     44 H8         51.5200   16.8884   -4.0445 H           1 MOL       0.1888
     45 H9         53.5027   15.5291   -5.6412 H           1 MOL       0.0803
     46 H10        51.8579   13.3684   -4.7821 H           1 MOL       0.0465
     47 H11        52.0283   14.3028   -3.3219 H           1 MOL       0.0465
     48 H12        53.9061   12.6720   -6.0757 H           1 MOL       0.0557
     49 H13        54.2036   14.2470   -2.1640 H           1 MOL       0.0557
     50 H14        56.1274   11.7562   -5.8711 H           1 MOL       0.0599
     51 H15        56.4348   13.3411   -1.9901 H           1 MOL       0.0599
     52 H16        57.4022   12.0879   -3.8275 H           1 MOL       0.0559
     53 H17        52.5427   17.1128   -7.1623 H           1 MOL       0.1669
     54 H18        49.7714   17.5040   -7.6795 H           1 MOL       0.0753
     55 H19        52.3329   19.0316   -8.2066 H           1 MOL       0.0311
     56 H20        50.8879   19.5331   -7.3412 H           1 MOL       0.0311
     57 H21        50.8508   19.0980  -10.3673 H           1 MOL       0.0298
     58 H22        48.9250   20.6574  -10.3247 H           1 MOL       0.0232
     59 H23        49.0727   20.8541   -8.5691 H           1 MOL       0.0232
     60 H24        48.5966   19.2924   -9.2515 H           1 MOL       0.0232
     61 H25        52.6585   20.6989   -9.8832 H           1 MOL       0.0232
     62 H26        51.5507   21.7073   -8.9343 H           1 MOL       0.0232
     63 H27        51.2997   21.5019  -10.6762 H           1 MOL       0.0232
     64 H28        49.0765   17.2985   -9.8883 H           1 MOL       0.1875
     65 H29        50.6636   15.6143  -11.7043 H           1 MOL       0.0723
     66 H30        48.6540   14.2214  -12.0757 H           1 MOL       0.0270
     67 H31        47.8034   15.0699  -10.7524 H           1 MOL       0.0270
     68 H32        49.2448   14.0843  -10.4026 H           1 MOL       0.0270
@<TRIPOS>BOND
     1    23    24   1
     2    24    27   1
     3    24    25   1
     4    25    26   2
     5    27    28   1
     6    28    29   1
     7    28    30   1
     8    31    32   1
     9    32    35   1
    10    32    33   1
    11    33    34  ar
    12    33    36  ar
    13    25    31  am
    14     1     2   2
    15     1     3   1
    16    11     1  am
    17     3     4   1
    18     4     5   1
    19     5     6  ar
    20     5     7  ar
    21     6     8  ar
    22     7     9  ar
    23     8    10  ar
    24     9    10  ar
    25    12    11   1
    26    13    12   1
    27    12    16   1
    28    13    14  ar
    29    13    15  ar
    30    13    23  am
    31    16    17   1
    32    17    18  ar
    33    17    19  ar
    34    18    20  ar
    35    19    21  ar
    36    20    22  ar
    37    21    22  ar
    38     4    37   1
    39     4    38   1
    40     6    39   1
    41     7    40   1
    42     8    41   1
    43     9    42   1
    44    10    43   1
    45    11    44   1
    46    12    45   1
    47    16    46   1
    48    16    47   1
    49    18    48   1
    50    19    49   1
    51    20    50   1
    52    21    51   1
    53    22    52   1
    54    23    53   1
    55    24    54   1
    56    27    55   1
    57    27    56   1
    58    28    57   1
    59    29    58   1
    60    29    59   1
    61    29    60   1
    62    30    61   1
    63    30    62   1
    64    30    63   1
    65    31    64   1
    66    32    65   1
    67    35    66   1
    68    35    67   1
    69    35    68   1
@<TRIPOS>SUBSTRUCTURE
     1  MOL      1

