@<TRIPOS>MOLECULE
4tmn_ligand_014
    68    69
SMALL
GAST_HUCK
****
This file was generated by PARSER (from files_GN.cpp)

@<TRIPOS>ATOM
      1 C          53.5923   16.0152   -3.0786 C.2         1 MOL       0.3232
      2 O          54.8262   16.5777   -3.0380 O.2         1 MOL      -0.3774
      3 OA         53.4445   14.6640   -3.0018 O.3         1 MOL      -0.2506
      4 CB         54.4745   13.6685   -2.8509 C.3         1 MOL       0.1113
      5 CG         54.7761   12.9149   -4.0958 C.ar        1 MOL      -0.0130
      6 CD1        53.8733   12.8666   -5.1871 C.ar        1 MOL      -0.0578
      7 CD2        56.0015   12.2163   -4.1987 C.ar        1 MOL      -0.0578
      8 CE1        54.1953   12.1448   -6.3498 C.ar        1 MOL      -0.0685
      9 CE2        56.3257   11.5053   -5.3675 C.ar        1 MOL      -0.0685
     10 CZ         55.4251   11.4731   -6.4455 C.ar        1 MOL      -0.0687
     11 N          52.4574   16.7427   -3.2273 N.am        1 MOL      -0.2403
     12 CA         52.2640   18.1692   -3.3409 C.3         1 MOL       0.1331
     13 P          53.2465   18.8971   -4.4959 P.3         1 MOL       0.0925
     14 OP1        53.2330   20.3428   -4.4967 O.co2       1 MOL      -0.6054
     15 OP2        54.6394   18.5995   -4.3099 O.co2       1 MOL      -0.6054
     16 CB         52.0706   18.9105   -1.9807 C.3         1 MOL       0.0219
     17 CG         53.3000   19.3355   -1.2577 C.ar        1 MOL      -0.0392
     18 CD1        53.9397   18.4583   -0.3523 C.ar        1 MOL      -0.0602
     19 CD2        53.8191   20.6441   -1.4148 C.ar        1 MOL      -0.0602
     20 CE1        55.0907   18.8622    0.3459 C.ar        1 MOL      -0.0686
     21 CE2        54.9655   21.0536   -0.7110 C.ar        1 MOL      -0.0686
     22 CZ         55.6007   20.1606    0.1683 C.ar        1 MOL      -0.0687
     23 N          52.8913   18.4495   -5.9025 N.am        1 MOL      -0.2733
     24 CA         51.6879   18.7181   -6.5870 C.3         1 MOL       0.1230
     25 C          51.1200   17.4408   -7.0074 C.2         1 MOL       0.1994
     26 O          50.1613   16.9964   -6.3863 O.2         1 MOL      -0.3949
     27 CB         51.9519   19.7535   -7.7368 C.3         1 MOL      -0.0136
     28 CG         51.0238   19.7519   -8.9991 C.3         1 MOL      -0.0429
     29 CD1        49.5071   19.8368   -8.6765 C.3         1 MOL      -0.0625
     30 CD2        51.4277   20.8948   -9.9721 C.3         1 MOL      -0.0625
     31 N          51.5892   16.8011   -8.0758 N.am        1 MOL      -0.2701
     32 CA         51.0314   15.6402   -8.7131 C.3         1 MOL       0.0916
     33 C          49.8307   15.9930   -9.5125 C.2         1 MOL       0.0598
     34 O          48.5878   15.5774   -9.1795 O.co2       1 MOL      -0.5666
     35 CB         50.8080   14.4542   -7.7339 C.3         1 MOL      -0.0300
     36 OXT        49.9502   16.7918  -10.5959 O.co2       1 MOL      -0.5666
     37 H1         54.1364   12.9688   -2.0852 H           1 MOL       0.0776
     38 H2         55.3963   14.1309   -2.4915 H           1 MOL       0.0776
     39 H3         52.9719   13.3486   -5.1497 H           1 MOL       0.0557
     40 H4         56.6676   12.2339   -3.4221 H           1 MOL       0.0557
     41 H5         53.5357   12.1091   -7.1277 H           1 MOL       0.0599
     42 H6         57.2158   11.0123   -5.4278 H           1 MOL       0.0599
     43 H7         55.6605   10.9528   -7.2913 H           1 MOL       0.0559
     44 H8         51.6329   16.2263   -3.2462 H           1 MOL       0.1888
     45 H9         51.2685   18.2265   -3.7878 H           1 MOL       0.0803
     46 H10        51.4703   18.2724   -1.3251 H           1 MOL       0.0465
     47 H11        51.4511   19.7958   -2.1496 H           1 MOL       0.0465
     48 H12        53.5777   17.5115   -0.2092 H           1 MOL       0.0557
     49 H13        53.3647   21.3138   -2.0361 H           1 MOL       0.0557
     50 H14        55.5488   18.2157    0.9934 H           1 MOL       0.0599
     51 H15        55.3240   22.0046   -0.8280 H           1 MOL       0.0599
     52 H16        56.4182   20.4653    0.7000 H           1 MOL       0.0559
     53 H17        53.5442   17.9469   -6.3582 H           1 MOL       0.1669
     54 H18        50.9693   19.2052   -5.9142 H           1 MOL       0.0753
     55 H19        52.9777   19.6192   -8.0939 H           1 MOL       0.0311
     56 H20        51.9094   20.7489   -7.2838 H           1 MOL       0.0311
     57 H21        51.1984   18.8171   -9.5353 H           1 MOL       0.0298
     58 H22        48.9246   19.8998   -9.5982 H           1 MOL       0.0232
     59 H23        49.2985   20.7172   -8.0683 H           1 MOL       0.0232
     60 H24        49.1700   18.9530   -8.1381 H           1 MOL       0.0232
     61 H25        52.4941   20.8499  -10.1993 H           1 MOL       0.0232
     62 H26        51.2062   21.8714   -9.5353 H           1 MOL       0.0232
     63 H27        50.8798   20.8029  -10.9110 H           1 MOL       0.0232
     64 H28        52.3414   17.2186   -8.5237 H           1 MOL       0.1875
     65 H29        51.7827   15.3019   -9.4331 H           1 MOL       0.0723
     66 H30        50.5628   13.5482   -8.2915 H           1 MOL       0.0270
     67 H31        49.9888   14.6622   -7.0452 H           1 MOL       0.0270
     68 H32        51.7115   14.2655   -7.1535 H           1 MOL       0.0270
@<TRIPOS>BOND
     1    23    24   1
     2    24    27   1
     3    24    25   1
     4    25    26   2
     5    27    28   1
     6    28    29   1
     7    28    30   1
     8    31    32   1
     9    32    35   1
    10    32    33   1
    11    33    34  ar
    12    33    36  ar
    13    25    31  am
    14     1     2   2
    15     1     3   1
    16    11     1  am
    17     3     4   1
    18     4     5   1
    19     5     6  ar
    20     5     7  ar
    21     6     8  ar
    22     7     9  ar
    23     8    10  ar
    24     9    10  ar
    25    12    11   1
    26    13    12   1
    27    12    16   1
    28    13    14  ar
    29    13    15  ar
    30    13    23  am
    31    16    17   1
    32    17    18  ar
    33    17    19  ar
    34    18    20  ar
    35    19    21  ar
    36    20    22  ar
    37    21    22  ar
    38     4    37   1
    39     4    38   1
    40     6    39   1
    41     7    40   1
    42     8    41   1
    43     9    42   1
    44    10    43   1
    45    11    44   1
    46    12    45   1
    47    16    46   1
    48    16    47   1
    49    18    48   1
    50    19    49   1
    51    20    50   1
    52    21    51   1
    53    22    52   1
    54    23    53   1
    55    24    54   1
    56    27    55   1
    57    27    56   1
    58    28    57   1
    59    29    58   1
    60    29    59   1
    61    29    60   1
    62    30    61   1
    63    30    62   1
    64    30    63   1
    65    31    64   1
    66    32    65   1
    67    35    66   1
    68    35    67   1
    69    35    68   1
@<TRIPOS>SUBSTRUCTURE
     1  MOL      1

