@<TRIPOS>MOLECULE
4tmn_ligand_036
    68    69
SMALL
GAST_HUCK
****
This file was generated by PARSER (from files_GN.cpp)

@<TRIPOS>ATOM
      1 C          53.3747   12.5895   -0.6961 C.2         1 MOL       0.3232
      2 O          53.7498   11.4843   -1.3920 O.2         1 MOL      -0.3774
      3 OA         53.1656   12.5253    0.6386 O.3         1 MOL      -0.2506
      4 CB         53.2118   11.3799    1.4925 C.3         1 MOL       0.1113
      5 CG         52.1297   10.4076    1.1947 C.ar        1 MOL      -0.0130
      6 CD1        50.8628   10.8624    0.7534 C.ar        1 MOL      -0.0578
      7 CD2        52.3007    9.0275    1.4562 C.ar        1 MOL      -0.0578
      8 CE1        49.7920    9.9670    0.5961 C.ar        1 MOL      -0.0685
      9 CE2        51.2254    8.1303    1.3089 C.ar        1 MOL      -0.0685
     10 CZ         49.9675    8.5991    0.8851 C.ar        1 MOL      -0.0687
     11 N          53.1296   13.7800   -1.2834 N.am        1 MOL      -0.2403
     12 CA         53.0849   14.0083   -2.6977 C.3         1 MOL       0.1331
     13 P          53.4453   15.6142   -3.0301 P.3         1 MOL       0.0925
     14 OP1        54.8149   15.8473   -2.6450 O.co2       1 MOL      -0.6054
     15 OP2        53.5087   15.7349   -4.4665 O.co2       1 MOL      -0.6054
     16 CB         51.6882   13.5806   -3.2453 C.3         1 MOL       0.0219
     17 CG         51.3964   12.1167   -3.1742 C.ar        1 MOL      -0.0392
     18 CD1        50.2124   11.6391   -2.5618 C.ar        1 MOL      -0.0602
     19 CD2        52.2865   11.1740   -3.7447 C.ar        1 MOL      -0.0602
     20 CE1        49.9262   10.2644   -2.5240 C.ar        1 MOL      -0.0686
     21 CE2        52.0055    9.7945   -3.6999 C.ar        1 MOL      -0.0686
     22 CZ         50.8226    9.3403   -3.0927 C.ar        1 MOL      -0.0687
     23 N          52.5234   16.6279   -2.3640 N.am        1 MOL      -0.2733
     24 CA         52.2664   17.9918   -2.6383 C.3         1 MOL       0.1230
     25 C          52.4297   18.4511   -4.0278 C.2         1 MOL       0.1994
     26 O          53.1646   19.3973   -4.2949 O.2         1 MOL      -0.3949
     27 CB         52.8686   18.9420   -1.5392 C.3         1 MOL      -0.0136
     28 CG         54.3265   19.5058   -1.7279 C.3         1 MOL      -0.0429
     29 CD1        54.4488   20.9991   -1.2941 C.3         1 MOL      -0.0625
     30 CD2        55.4112   18.6634   -0.9990 C.3         1 MOL      -0.0625
     31 N          51.7509   17.8406   -4.9926 N.am        1 MOL      -0.2701
     32 CA         51.9959   17.9898   -6.4054 C.3         1 MOL       0.0916
     33 C          51.5466   19.2985   -6.9250 C.2         1 MOL       0.0598
     34 O          50.2335   19.5520   -7.1166 O.co2       1 MOL      -0.5666
     35 CB         51.3219   16.8375   -7.1890 C.3         1 MOL      -0.0300
     36 OXT        52.4438   20.2856   -7.1625 O.co2       1 MOL      -0.5666
     37 H1         53.0509   11.7434    2.5054 H           1 MOL       0.0776
     38 H2         54.2040   10.9217    1.4555 H           1 MOL       0.0776
     39 H3         50.7057   11.8521    0.5511 H           1 MOL       0.0557
     40 H4         53.1978    8.6705    1.7907 H           1 MOL       0.0557
     41 H5         48.8778   10.3058    0.2884 H           1 MOL       0.0599
     42 H6         51.3467    7.1414    1.5386 H           1 MOL       0.0599
     43 H7         49.1808    7.9521    0.7944 H           1 MOL       0.0559
     44 H8         52.7952   14.4882   -0.7058 H           1 MOL       0.1888
     45 H9         53.8414   13.4016   -3.2052 H           1 MOL       0.0803
     46 H10        51.6068   13.8672   -4.2981 H           1 MOL       0.0465
     47 H11        50.9269   14.1410   -2.6942 H           1 MOL       0.0465
     48 H12        49.5409   12.2960   -2.1523 H           1 MOL       0.0557
     49 H13        53.1594   11.4787   -4.1776 H           1 MOL       0.0557
     50 H14        49.0683    9.9347   -2.0793 H           1 MOL       0.0599
     51 H15        52.6583    9.1272   -4.1147 H           1 MOL       0.0599
     52 H16        50.6127    8.3447   -3.0714 H           1 MOL       0.0559
     53 H17        52.1767   16.3309   -1.5481 H           1 MOL       0.1669
     54 H18        51.1867   18.0681   -2.4635 H           1 MOL       0.0753
     55 H19        52.7986   18.4393   -0.5629 H           1 MOL       0.0311
     56 H20        52.1839   19.7961   -1.4588 H           1 MOL       0.0311
     57 H21        54.5874   19.4759   -2.7853 H           1 MOL       0.0298
     58 H22        55.4651   21.3756   -1.4559 H           1 MOL       0.0232
     59 H23        54.2048   21.1178   -0.2328 H           1 MOL       0.0232
     60 H24        53.7609   21.6263   -1.8700 H           1 MOL       0.0232
     61 H25        55.3553   17.6210   -1.3070 H           1 MOL       0.0232
     62 H26        55.2769   18.7075    0.0886 H           1 MOL       0.0232
     63 H27        56.4100   19.0418   -1.2403 H           1 MOL       0.0232
     64 H28        51.1508   17.1201   -4.7177 H           1 MOL       0.1875
     65 H29        53.0715   17.9004   -6.5748 H           1 MOL       0.0723
     66 H30        51.5722   16.9025   -8.2534 H           1 MOL       0.0270
     67 H31        50.2350   16.8754   -7.0797 H           1 MOL       0.0270
     68 H32        51.6736   15.8715   -6.8205 H           1 MOL       0.0270
@<TRIPOS>BOND
     1    23    24   1
     2    24    27   1
     3    24    25   1
     4    25    26   2
     5    27    28   1
     6    28    29   1
     7    28    30   1
     8    31    32   1
     9    32    35   1
    10    32    33   1
    11    33    34  ar
    12    33    36  ar
    13    25    31  am
    14     1     2   2
    15     1     3   1
    16    11     1  am
    17     3     4   1
    18     4     5   1
    19     5     6  ar
    20     5     7  ar
    21     6     8  ar
    22     7     9  ar
    23     8    10  ar
    24     9    10  ar
    25    12    11   1
    26    13    12   1
    27    12    16   1
    28    13    14  ar
    29    13    15  ar
    30    13    23  am
    31    16    17   1
    32    17    18  ar
    33    17    19  ar
    34    18    20  ar
    35    19    21  ar
    36    20    22  ar
    37    21    22  ar
    38     4    37   1
    39     4    38   1
    40     6    39   1
    41     7    40   1
    42     8    41   1
    43     9    42   1
    44    10    43   1
    45    11    44   1
    46    12    45   1
    47    16    46   1
    48    16    47   1
    49    18    48   1
    50    19    49   1
    51    20    50   1
    52    21    51   1
    53    22    52   1
    54    23    53   1
    55    24    54   1
    56    27    55   1
    57    27    56   1
    58    28    57   1
    59    29    58   1
    60    29    59   1
    61    29    60   1
    62    30    61   1
    63    30    62   1
    64    30    63   1
    65    31    64   1
    66    32    65   1
    67    35    66   1
    68    35    67   1
    69    35    68   1
@<TRIPOS>SUBSTRUCTURE
     1  MOL      1

