@<TRIPOS>MOLECULE
4tmn_ligand_004
    68    69
SMALL
GAST_HUCK
****
This file was generated by PARSER (from files_GN.cpp)

@<TRIPOS>ATOM
      1 C          48.6147   19.4809  -10.6912 C.2         1 MOL       0.3232
      2 O          49.0354   18.2579  -11.1106 O.2         1 MOL      -0.3774
      3 OA         47.2936   19.8193  -10.7279 O.3         1 MOL      -0.2506
      4 CB         46.2025   19.0089  -11.1940 C.3         1 MOL       0.1113
      5 CG         45.3809   18.5307  -10.0565 C.ar        1 MOL      -0.0130
      6 CD1        43.9650   18.5357  -10.1124 C.ar        1 MOL      -0.0578
      7 CD2        46.0060   17.9874   -8.9087 C.ar        1 MOL      -0.0578
      8 CE1        43.2028   18.0163   -9.0478 C.ar        1 MOL      -0.0685
      9 CE2        45.2464   17.4769   -7.8412 C.ar        1 MOL      -0.0685
     10 CZ         43.8423   17.4816   -7.9162 C.ar        1 MOL      -0.0687
     11 N          49.4630   20.3842  -10.1457 N.am        1 MOL      -0.2403
     12 CA         50.8648   20.2013   -9.8812 C.3         1 MOL       0.1331
     13 P          51.0829   20.0124   -8.2260 P.3         1 MOL       0.0925
     14 OP1        52.3333   20.6014   -7.8140 O.co2       1 MOL      -0.6054
     15 OP2        50.0739   20.7219   -7.4758 O.co2       1 MOL      -0.6054
     16 CB         51.6656   21.4116  -10.4705 C.3         1 MOL       0.0219
     17 CG         51.5500   21.7460  -11.9214 C.ar        1 MOL      -0.0392
     18 CD1        52.0072   23.0149  -12.3538 C.ar        1 MOL      -0.0602
     19 CD2        51.0564   20.8455  -12.9020 C.ar        1 MOL      -0.0602
     20 CE1        51.9325   23.3893  -13.7068 C.ar        1 MOL      -0.0686
     21 CE2        50.9799   21.2205  -14.2538 C.ar        1 MOL      -0.0686
     22 CZ         51.4099   22.4971  -14.6558 C.ar        1 MOL      -0.0687
     23 N          51.2507   18.5597   -7.7932 N.am        1 MOL      -0.2733
     24 CA         51.0409   18.0419   -6.4915 C.3         1 MOL       0.1230
     25 C          52.0000   18.5211   -5.4739 C.2         1 MOL       0.1994
     26 O          52.9003   19.2946   -5.7811 O.2         1 MOL      -0.3949
     27 CB         51.0587   16.4722   -6.5401 C.3         1 MOL      -0.0136
     28 CG         49.9815   15.7278   -7.4013 C.3         1 MOL      -0.0429
     29 CD1        48.5293   16.1637   -7.0636 C.3         1 MOL      -0.0625
     30 CD2        50.2459   15.7955   -8.9308 C.3         1 MOL      -0.0625
     31 N          51.8603   18.1097   -4.2153 N.am        1 MOL      -0.2701
     32 CA         52.6121   18.5203   -3.0643 C.3         1 MOL       0.0916
     33 C          54.0621   18.2627   -3.2115 C.2         1 MOL       0.0598
     34 O          54.5610   17.0222   -3.4109 O.co2       1 MOL      -0.5666
     35 CB         52.0595   17.7934   -1.8167 C.3         1 MOL      -0.0300
     36 OXT        54.9290   19.3053   -3.2043 O.co2       1 MOL      -0.5666
     37 H1         46.5582   18.1356  -11.7414 H           1 MOL       0.0776
     38 H2         45.6167   19.6164  -11.8845 H           1 MOL       0.0776
     39 H3         43.4785   18.9031  -10.9363 H           1 MOL       0.0557
     40 H4         47.0251   17.9671   -8.8380 H           1 MOL       0.0557
     41 H5         42.1804   18.0225   -9.0982 H           1 MOL       0.0599
     42 H6         45.7208   17.1021   -7.0129 H           1 MOL       0.0599
     43 H7         43.2922   17.1030   -7.1450 H           1 MOL       0.0559
     44 H8         49.0648   21.2284   -9.8773 H           1 MOL       0.1888
     45 H9         51.2457   19.2937  -10.3537 H           1 MOL       0.0803
     46 H10        52.7316   21.2427  -10.2885 H           1 MOL       0.0465
     47 H11        51.3801   22.3043   -9.8931 H           1 MOL       0.0465
     48 H12        52.3945   23.6783  -11.6826 H           1 MOL       0.0557
     49 H13        50.7626   19.9039  -12.6512 H           1 MOL       0.0557
     50 H14        52.2627   24.3113  -14.0004 H           1 MOL       0.0599
     51 H15        50.6194   20.5645  -14.9511 H           1 MOL       0.0599
     52 H16        51.3540   22.7739  -15.6448 H           1 MOL       0.0559
     53 H17        51.8322   18.0581   -8.3319 H           1 MOL       0.1669
     54 H18        50.0481   18.3536   -6.1511 H           1 MOL       0.0753
     55 H19        50.9391   16.0848   -5.5286 H           1 MOL       0.0311
     56 H20        52.0464   16.1478   -6.8700 H           1 MOL       0.0311
     57 H21        50.0510   14.6637   -7.1317 H           1 MOL       0.0298
     58 H22        47.8096   15.5183   -7.5773 H           1 MOL       0.0232
     59 H23        48.3595   17.1956   -7.3787 H           1 MOL       0.0232
     60 H24        48.3462   16.0977   -5.9896 H           1 MOL       0.0232
     61 H25        51.2687   15.4754   -9.1552 H           1 MOL       0.0232
     62 H26        50.1018   16.8089   -9.2988 H           1 MOL       0.0232
     63 H27        49.5546   15.1352   -9.4601 H           1 MOL       0.0232
     64 H28        51.1451   17.4721   -4.0548 H           1 MOL       0.1875
     65 H29        52.4596   19.5834   -2.9180 H           1 MOL       0.0723
     66 H30        52.5983   18.1078   -0.9216 H           1 MOL       0.0270
     67 H31        52.1553   16.7067   -1.9224 H           1 MOL       0.0270
     68 H32        51.0029   18.0346   -1.6814 H           1 MOL       0.0270
@<TRIPOS>BOND
     1    23    24   1
     2    24    27   1
     3    24    25   1
     4    25    26   2
     5    27    28   1
     6    28    29   1
     7    28    30   1
     8    31    32   1
     9    32    35   1
    10    32    33   1
    11    33    34  ar
    12    33    36  ar
    13    25    31  am
    14     1     2   2
    15     1     3   1
    16    11     1  am
    17     3     4   1
    18     4     5   1
    19     5     6  ar
    20     5     7  ar
    21     6     8  ar
    22     7     9  ar
    23     8    10  ar
    24     9    10  ar
    25    12    11   1
    26    13    12   1
    27    12    16   1
    28    13    14  ar
    29    13    15  ar
    30    13    23  am
    31    16    17   1
    32    17    18  ar
    33    17    19  ar
    34    18    20  ar
    35    19    21  ar
    36    20    22  ar
    37    21    22  ar
    38     4    37   1
    39     4    38   1
    40     6    39   1
    41     7    40   1
    42     8    41   1
    43     9    42   1
    44    10    43   1
    45    11    44   1
    46    12    45   1
    47    16    46   1
    48    16    47   1
    49    18    48   1
    50    19    49   1
    51    20    50   1
    52    21    51   1
    53    22    52   1
    54    23    53   1
    55    24    54   1
    56    27    55   1
    57    27    56   1
    58    28    57   1
    59    29    58   1
    60    29    59   1
    61    29    60   1
    62    30    61   1
    63    30    62   1
    64    30    63   1
    65    31    64   1
    66    32    65   1
    67    35    66   1
    68    35    67   1
    69    35    68   1
@<TRIPOS>SUBSTRUCTURE
     1  MOL      1

