@<TRIPOS>MOLECULE
4tmn_ligand_026
    68    69
SMALL
GAST_HUCK
****
This file was generated by PARSER (from files_GN.cpp)

@<TRIPOS>ATOM
      1 C          49.8827   15.5973   -7.1509 C.2         1 MOL       0.3232
      2 O          50.6489   14.9893   -8.0873 O.2         1 MOL      -0.3774
      3 OA         48.7661   15.0047   -6.6594 O.3         1 MOL      -0.2506
      4 CB         48.1584   13.7629   -7.0443 C.3         1 MOL       0.1113
      5 CG         46.6897   13.8851   -7.2446 C.ar        1 MOL      -0.0130
      6 CD1        45.8674   12.7388   -7.1189 C.ar        1 MOL      -0.0578
      7 CD2        46.0763   15.1175   -7.5822 C.ar        1 MOL      -0.0578
      8 CE1        44.4743   12.8240   -7.3019 C.ar        1 MOL      -0.0685
      9 CE2        44.6836   15.2036   -7.7698 C.ar        1 MOL      -0.0685
     10 CZ         43.8818   14.0573   -7.6264 C.ar        1 MOL      -0.0687
     11 N          50.1833   16.8186   -6.6613 N.am        1 MOL      -0.2403
     12 CA         51.2708   17.6563   -7.0879 C.3         1 MOL       0.1331
     13 P          51.5201   18.8630   -5.9540 P.3         1 MOL       0.0925
     14 OP1        52.6726   19.6565   -6.3002 O.co2       1 MOL      -0.6054
     15 OP2        50.3840   19.7481   -5.9347 O.co2       1 MOL      -0.6054
     16 CB         51.1109   18.1705   -8.5662 C.3         1 MOL       0.0219
     17 CG         49.7164   18.4153   -9.0397 C.ar        1 MOL      -0.0392
     18 CD1        49.0177   17.4125   -9.7563 C.ar        1 MOL      -0.0602
     19 CD2        49.0568   19.6427   -8.7927 C.ar        1 MOL      -0.0602
     20 CE1        47.6840   17.6036  -10.1591 C.ar        1 MOL      -0.0686
     21 CE2        47.7256   19.8411   -9.2054 C.ar        1 MOL      -0.0686
     22 CZ         47.0343   18.8170   -9.8768 C.ar        1 MOL      -0.0687
     23 N          51.6065   18.2678   -4.5593 N.am        1 MOL      -0.2733
     24 CA         52.7120   18.2309   -3.6918 C.3         1 MOL       0.1230
     25 C          53.3898   16.9306   -3.7664 C.2         1 MOL       0.1994
     26 O          54.6124   16.9134   -3.6929 O.2         1 MOL      -0.3949
     27 CB         52.2086   18.5465   -2.2428 C.3         1 MOL      -0.0136
     28 CG         53.3104   19.0683   -1.2552 C.3         1 MOL      -0.0429
     29 CD1        53.5598   20.5995   -1.4014 C.3         1 MOL      -0.0625
     30 CD2        52.9766   18.7237    0.2219 C.3         1 MOL      -0.0625
     31 N          52.6822   15.8037   -3.8839 N.am        1 MOL      -0.2701
     32 CA         53.1077   14.4248   -3.9477 C.3         1 MOL       0.0916
     33 C          54.4877   14.1195   -3.4950 C.2         1 MOL       0.0598
     34 O          55.4940   13.8536   -4.3614 O.co2       1 MOL      -0.5666
     35 CB         52.8119   13.8574   -5.3595 C.3         1 MOL      -0.0300
     36 OXT        54.8045   14.2794   -2.1904 O.co2       1 MOL      -0.5666
     37 H1         48.3584   13.0564   -6.2359 H           1 MOL       0.0776
     38 H2         48.6012   13.3623   -7.9590 H           1 MOL       0.0776
     39 H3         46.2784   11.8303   -6.8882 H           1 MOL       0.0557
     40 H4         46.6378   15.9633   -7.7012 H           1 MOL       0.0557
     41 H5         43.8933   11.9880   -7.2020 H           1 MOL       0.0599
     42 H6         44.2544   16.0995   -8.0125 H           1 MOL       0.0599
     43 H7         42.8705   14.1200   -7.7598 H           1 MOL       0.0559
     44 H8         49.5924   17.1628   -5.9713 H           1 MOL       0.1888
     45 H9         52.1822   17.0515   -7.0463 H           1 MOL       0.0803
     46 H10        51.5629   17.4161   -9.2140 H           1 MOL       0.0465
     47 H11        51.7031   19.0753   -8.7314 H           1 MOL       0.0465
     48 H12        49.4706   16.5237   -9.9808 H           1 MOL       0.0557
     49 H13        49.5420   20.4057   -8.3183 H           1 MOL       0.0557
     50 H14        47.1873   16.8586  -10.6525 H           1 MOL       0.0599
     51 H15        47.2555   20.7268   -9.0097 H           1 MOL       0.0599
     52 H16        46.0643   18.9566  -10.1668 H           1 MOL       0.0559
     53 H17        50.8942   17.7118   -4.3184 H           1 MOL       0.1669
     54 H18        53.4211   19.0222   -3.9618 H           1 MOL       0.0753
     55 H19        51.7385   17.6453   -1.8372 H           1 MOL       0.0311
     56 H20        51.4133   19.2976   -2.2877 H           1 MOL       0.0311
     57 H21        54.2522   18.5616   -1.4847 H           1 MOL       0.0298
     58 H22        54.3179   20.9361   -0.6897 H           1 MOL       0.0232
     59 H23        52.6430   21.1625   -1.2114 H           1 MOL       0.0232
     60 H24        53.9126   20.8400   -2.4060 H           1 MOL       0.0232
     61 H25        52.8905   17.6423    0.3470 H           1 MOL       0.0232
     62 H26        52.0371   19.1891    0.5281 H           1 MOL       0.0232
     63 H27        53.7722   19.0736    0.8843 H           1 MOL       0.0232
     64 H28        51.7203   15.9258   -3.9549 H           1 MOL       0.1875
     65 H29        52.4520   13.8810   -3.2624 H           1 MOL       0.0723
     66 H30        53.0403   12.7902   -5.4015 H           1 MOL       0.0270
     67 H31        53.4081   14.3716   -6.1145 H           1 MOL       0.0270
     68 H32        51.7578   13.9822   -5.6088 H           1 MOL       0.0270
@<TRIPOS>BOND
     1    23    24   1
     2    24    27   1
     3    24    25   1
     4    25    26   2
     5    27    28   1
     6    28    29   1
     7    28    30   1
     8    31    32   1
     9    32    35   1
    10    32    33   1
    11    33    34  ar
    12    33    36  ar
    13    25    31  am
    14     1     2   2
    15     1     3   1
    16    11     1  am
    17     3     4   1
    18     4     5   1
    19     5     6  ar
    20     5     7  ar
    21     6     8  ar
    22     7     9  ar
    23     8    10  ar
    24     9    10  ar
    25    12    11   1
    26    13    12   1
    27    12    16   1
    28    13    14  ar
    29    13    15  ar
    30    13    23  am
    31    16    17   1
    32    17    18  ar
    33    17    19  ar
    34    18    20  ar
    35    19    21  ar
    36    20    22  ar
    37    21    22  ar
    38     4    37   1
    39     4    38   1
    40     6    39   1
    41     7    40   1
    42     8    41   1
    43     9    42   1
    44    10    43   1
    45    11    44   1
    46    12    45   1
    47    16    46   1
    48    16    47   1
    49    18    48   1
    50    19    49   1
    51    20    50   1
    52    21    51   1
    53    22    52   1
    54    23    53   1
    55    24    54   1
    56    27    55   1
    57    27    56   1
    58    28    57   1
    59    29    58   1
    60    29    59   1
    61    29    60   1
    62    30    61   1
    63    30    62   1
    64    30    63   1
    65    31    64   1
    66    32    65   1
    67    35    66   1
    68    35    67   1
    69    35    68   1
@<TRIPOS>SUBSTRUCTURE
     1  MOL      1

