@<TRIPOS>MOLECULE
4tmn_ligand_028
    68    69
SMALL
GAST_HUCK
****
This file was generated by PARSER (from files_GN.cpp)

@<TRIPOS>ATOM
      1 C          53.2468   18.9421   -3.2557 C.2         1 MOL       0.3232
      2 O          54.5756   18.9248   -3.5095 O.2         1 MOL      -0.3774
      3 OA         52.7581   19.5166   -2.1240 O.3         1 MOL      -0.2506
      4 CB         53.4918   20.2533   -1.1370 C.3         1 MOL       0.1113
      5 CG         53.7847   19.4000    0.0406 C.ar        1 MOL      -0.0130
      6 CD1        55.1067   18.9808    0.3278 C.ar        1 MOL      -0.0578
      7 CD2        52.7435   18.9983    0.9084 C.ar        1 MOL      -0.0578
      8 CE1        55.3792   18.1938    1.4619 C.ar        1 MOL      -0.0685
      9 CE2        53.0175   18.2186    2.0501 C.ar        1 MOL      -0.0685
     10 CZ         54.3402   17.8198    2.3277 C.ar        1 MOL      -0.0687
     11 N          52.3520   18.3534   -4.0782 N.am        1 MOL      -0.2403
     12 CA         52.6382   17.6414   -5.2906 C.3         1 MOL       0.1331
     13 P          51.9040   18.4642   -6.5561 P.3         1 MOL       0.0925
     14 OP1        50.7723   19.2707   -6.1744 O.co2       1 MOL      -0.6054
     15 OP2        52.8395   19.4570   -7.0098 O.co2       1 MOL      -0.6054
     16 CB         52.1795   16.1560   -5.1566 C.3         1 MOL       0.0219
     17 CG         52.9631   15.3333   -4.1868 C.ar        1 MOL      -0.0392
     18 CD1        53.8728   14.3448   -4.6474 C.ar        1 MOL      -0.0602
     19 CD2        52.8001   15.4859   -2.7893 C.ar        1 MOL      -0.0602
     20 CE1        54.5963   13.5499   -3.7444 C.ar        1 MOL      -0.0686
     21 CE2        53.5076   14.6794   -1.8826 C.ar        1 MOL      -0.0686
     22 CZ         54.4058   13.7020   -2.3592 C.ar        1 MOL      -0.0687
     23 N          51.5965   17.6220   -7.7850 N.am        1 MOL      -0.2733
     24 CA         50.3301   17.1640   -8.1958 C.3         1 MOL       0.1230
     25 C          49.9831   15.8956   -7.5526 C.2         1 MOL       0.1994
     26 O          49.0749   15.9075   -6.7314 O.2         1 MOL      -0.3949
     27 CB         50.2991   17.0799   -9.7556 C.3         1 MOL      -0.0136
     28 CG         48.9389   16.6742  -10.4157 C.3         1 MOL      -0.0429
     29 CD1        47.7893   17.6725  -10.1029 C.3         1 MOL      -0.0625
     30 CD2        49.1027   16.4965  -11.9512 C.3         1 MOL      -0.0625
     31 N          50.5642   14.7551   -7.9082 N.am        1 MOL      -0.2701
     32 CA         50.2281   13.4382   -7.4352 C.3         1 MOL       0.0916
     33 C          51.3297   12.9174   -6.5983 C.2         1 MOL       0.0598
     34 O          52.2986   12.1271   -7.1085 O.co2       1 MOL      -0.5666
     35 CB         49.9185   12.5169   -8.6397 C.3         1 MOL      -0.0300
     36 OXT        51.3952   13.2311   -5.2832 O.co2       1 MOL      -0.5666
     37 H1         52.8842   21.1074   -0.8267 H           1 MOL       0.0776
     38 H2         54.4097   20.6624   -1.5661 H           1 MOL       0.0776
     39 H3         55.8763   19.2456   -0.2920 H           1 MOL       0.0557
     40 H4         51.7766   19.2804    0.7303 H           1 MOL       0.0557
     41 H5         56.3430   17.9007    1.6546 H           1 MOL       0.0599
     42 H6         52.2649   17.9486    2.6854 H           1 MOL       0.0599
     43 H7         54.5452   17.2603    3.1586 H           1 MOL       0.0559
     44 H8         51.4187   18.4078   -3.8187 H           1 MOL       0.1888
     45 H9         53.7135   17.6239   -5.4989 H           1 MOL       0.0803
     46 H10        52.2564   15.6862   -6.1395 H           1 MOL       0.0465
     47 H11        51.1230   16.1221   -4.8770 H           1 MOL       0.0465
     48 H12        54.0258   14.2107   -5.6506 H           1 MOL       0.0557
     49 H13        52.1569   16.1883   -2.4176 H           1 MOL       0.0557
     50 H14        55.2636   12.8530   -4.0911 H           1 MOL       0.0599
     51 H15        53.3749   14.7934   -0.8757 H           1 MOL       0.0599
     52 H16        54.9203   13.1116   -1.7029 H           1 MOL       0.0559
     53 H17        52.3299   17.3875   -8.3204 H           1 MOL       0.1669
     54 H18        49.5765   17.9152   -7.9352 H           1 MOL       0.0753
     55 H19        51.0629   16.3613  -10.0688 H           1 MOL       0.0311
     56 H20        50.5952   18.0571  -10.1533 H           1 MOL       0.0311
     57 H21        48.6407   15.6993  -10.0204 H           1 MOL       0.0298
     58 H22        46.8835   17.3951  -10.6445 H           1 MOL       0.0232
     59 H23        48.0720   18.6863  -10.3921 H           1 MOL       0.0232
     60 H24        47.5520   17.6634   -9.0389 H           1 MOL       0.0232
     61 H25        49.8622   15.7431  -12.1688 H           1 MOL       0.0232
     62 H26        49.3996   17.4370  -12.4198 H           1 MOL       0.0232
     63 H27        48.1639   16.1646  -12.3970 H           1 MOL       0.0232
     64 H28        51.2549   14.8020   -8.5890 H           1 MOL       0.1875
     65 H29        49.3290   13.4529   -6.8132 H           1 MOL       0.0723
     66 H30        49.7019   11.5033   -8.2926 H           1 MOL       0.0270
     67 H31        50.7673   12.4835   -9.3271 H           1 MOL       0.0270
     68 H32        49.0487   12.8891   -9.1817 H           1 MOL       0.0270
@<TRIPOS>BOND
     1    23    24   1
     2    24    27   1
     3    24    25   1
     4    25    26   2
     5    27    28   1
     6    28    29   1
     7    28    30   1
     8    31    32   1
     9    32    35   1
    10    32    33   1
    11    33    34  ar
    12    33    36  ar
    13    25    31  am
    14     1     2   2
    15     1     3   1
    16    11     1  am
    17     3     4   1
    18     4     5   1
    19     5     6  ar
    20     5     7  ar
    21     6     8  ar
    22     7     9  ar
    23     8    10  ar
    24     9    10  ar
    25    12    11   1
    26    13    12   1
    27    12    16   1
    28    13    14  ar
    29    13    15  ar
    30    13    23  am
    31    16    17   1
    32    17    18  ar
    33    17    19  ar
    34    18    20  ar
    35    19    21  ar
    36    20    22  ar
    37    21    22  ar
    38     4    37   1
    39     4    38   1
    40     6    39   1
    41     7    40   1
    42     8    41   1
    43     9    42   1
    44    10    43   1
    45    11    44   1
    46    12    45   1
    47    16    46   1
    48    16    47   1
    49    18    48   1
    50    19    49   1
    51    20    50   1
    52    21    51   1
    53    22    52   1
    54    23    53   1
    55    24    54   1
    56    27    55   1
    57    27    56   1
    58    28    57   1
    59    29    58   1
    60    29    59   1
    61    29    60   1
    62    30    61   1
    63    30    62   1
    64    30    63   1
    65    31    64   1
    66    32    65   1
    67    35    66   1
    68    35    67   1
    69    35    68   1
@<TRIPOS>SUBSTRUCTURE
     1  MOL      1

