@<TRIPOS>MOLECULE
4tmn_ligand_059
    68    69
SMALL
GAST_HUCK
****
This file was generated by PARSER (from files_GN.cpp)

@<TRIPOS>ATOM
      1 C          52.3327   15.3082   -5.0917 C.2         1 MOL       0.3232
      2 O          53.6499   15.5450   -4.9036 O.2         1 MOL      -0.3774
      3 OA         51.8314   14.0474   -4.9935 O.3         1 MOL      -0.2506
      4 CB         52.5436   12.8437   -4.6807 C.3         1 MOL       0.1113
      5 CG         51.7453   11.8872   -3.8725 C.ar        1 MOL      -0.0130
      6 CD1        51.8760   10.4993   -4.1069 C.ar        1 MOL      -0.0578
      7 CD2        50.8793   12.3238   -2.8385 C.ar        1 MOL      -0.0578
      8 CE1        51.1357    9.5704   -3.3544 C.ar        1 MOL      -0.0685
      9 CE2        50.1403   11.3936   -2.0832 C.ar        1 MOL      -0.0685
     10 CZ         50.2656   10.0172   -2.3438 C.ar        1 MOL      -0.0687
     11 N          51.4476   16.3025   -5.3196 N.am        1 MOL      -0.2403
     12 CA         51.6657   17.7194   -5.4222 C.3         1 MOL       0.1331
     13 P          51.7706   18.2067   -7.0305 P.3         1 MOL       0.0925
     14 OP1        52.6931   19.3057   -7.1602 O.co2       1 MOL      -0.6054
     15 OP2        52.2846   17.1496   -7.8639 O.co2       1 MOL      -0.6054
     16 CB         52.7607   18.2721   -4.4463 C.3         1 MOL       0.0219
     17 CG         52.4974   17.9229   -3.0152 C.ar        1 MOL      -0.0392
     18 CD1        53.2352   16.9048   -2.3622 C.ar        1 MOL      -0.0602
     19 CD2        51.4662   18.5750   -2.2958 C.ar        1 MOL      -0.0602
     20 CE1        52.9154   16.5261   -1.0406 C.ar        1 MOL      -0.0686
     21 CE2        51.1770   18.2262   -0.9638 C.ar        1 MOL      -0.0686
     22 CZ         51.8959   17.1930   -0.3383 C.ar        1 MOL      -0.0687
     23 N          50.4309   18.7169   -7.5505 N.am        1 MOL      -0.2733
     24 CA         49.6557   18.2362   -8.6268 C.3         1 MOL       0.1230
     25 C          49.5265   19.3123   -9.6166 C.2         1 MOL       0.1994
     26 O          48.4223   19.7234   -9.9577 O.2         1 MOL      -0.3949
     27 CB         48.2648   17.7157   -8.1074 C.3         1 MOL      -0.0136
     28 CG         48.2884   16.6550   -6.9537 C.3         1 MOL      -0.0429
     29 CD1        47.2184   16.9300   -5.8653 C.3         1 MOL      -0.0625
     30 CD2        48.2180   15.1909   -7.4670 C.3         1 MOL      -0.0625
     31 N          50.6143   19.8353  -10.1727 N.am        1 MOL      -0.2701
     32 CA         50.6621   20.9071  -11.1343 C.3         1 MOL       0.0916
     33 C          50.8580   20.3366  -12.4860 C.2         1 MOL       0.0598
     34 O          50.0404   19.3345  -12.8878 O.co2       1 MOL      -0.5666
     35 CB         51.7736   21.9014  -10.7200 C.3         1 MOL      -0.0300
     36 OXT        51.3924   21.0903  -13.4758 O.co2       1 MOL      -0.5666
     37 H1         53.4612   13.0668   -4.1275 H           1 MOL       0.0776
     38 H2         52.8250   12.3864   -5.6328 H           1 MOL       0.0776
     39 H3         52.5081   10.1550   -4.8332 H           1 MOL       0.0557
     40 H4         50.7815   13.3167   -2.6216 H           1 MOL       0.0557
     41 H5         51.2310    8.5697   -3.5407 H           1 MOL       0.0599
     42 H6         49.5144   11.7173   -1.3423 H           1 MOL       0.0599
     43 H7         49.7294    9.3409   -1.7941 H           1 MOL       0.0559
     44 H8         50.5272   16.0192   -5.3971 H           1 MOL       0.1888
     45 H9         50.7352   18.1605   -5.0622 H           1 MOL       0.0803
     46 H10        52.7983   19.3659   -4.5222 H           1 MOL       0.0465
     47 H11        53.7440   17.8998   -4.7532 H           1 MOL       0.0465
     48 H12        53.9913   16.4194   -2.8619 H           1 MOL       0.0557
     49 H13        50.9186   19.3149   -2.7383 H           1 MOL       0.0557
     50 H14        53.4203   15.7650   -0.5866 H           1 MOL       0.0599
     51 H15        50.4423   18.7238   -0.4548 H           1 MOL       0.0599
     52 H16        51.6860   16.9348    0.6285 H           1 MOL       0.0559
     53 H17        50.0603   19.4322   -7.0759 H           1 MOL       0.1669
     54 H18        50.1383   17.3944   -9.1398 H           1 MOL       0.0753
     55 H19        47.7021   17.3025   -8.9551 H           1 MOL       0.0311
     56 H20        47.7012   18.5902   -7.7654 H           1 MOL       0.0311
     57 H21        49.2418   16.7494   -6.4367 H           1 MOL       0.0298
     58 H22        47.3007   16.2020   -5.0583 H           1 MOL       0.0232
     59 H23        46.2108   16.8834   -6.2825 H           1 MOL       0.0232
     60 H24        47.3766   17.9210   -5.4363 H           1 MOL       0.0232
     61 H25        48.9982   15.0081   -8.2073 H           1 MOL       0.0232
     62 H26        47.2470   14.9851   -7.9229 H           1 MOL       0.0232
     63 H27        48.3670   14.4964   -6.6388 H           1 MOL       0.0232
     64 H28        51.4659   19.4545   -9.9101 H           1 MOL       0.1875
     65 H29        49.7221   21.4693  -11.1595 H           1 MOL       0.0723
     66 H30        51.7979   22.7576  -11.3997 H           1 MOL       0.0270
     67 H31        52.7505   21.4143  -10.7341 H           1 MOL       0.0270
     68 H32        51.5823   22.2754   -9.7123 H           1 MOL       0.0270
@<TRIPOS>BOND
     1    23    24   1
     2    24    27   1
     3    24    25   1
     4    25    26   2
     5    27    28   1
     6    28    29   1
     7    28    30   1
     8    31    32   1
     9    32    35   1
    10    32    33   1
    11    33    34  ar
    12    33    36  ar
    13    25    31  am
    14     1     2   2
    15     1     3   1
    16    11     1  am
    17     3     4   1
    18     4     5   1
    19     5     6  ar
    20     5     7  ar
    21     6     8  ar
    22     7     9  ar
    23     8    10  ar
    24     9    10  ar
    25    12    11   1
    26    13    12   1
    27    12    16   1
    28    13    14  ar
    29    13    15  ar
    30    13    23  am
    31    16    17   1
    32    17    18  ar
    33    17    19  ar
    34    18    20  ar
    35    19    21  ar
    36    20    22  ar
    37    21    22  ar
    38     4    37   1
    39     4    38   1
    40     6    39   1
    41     7    40   1
    42     8    41   1
    43     9    42   1
    44    10    43   1
    45    11    44   1
    46    12    45   1
    47    16    46   1
    48    16    47   1
    49    18    48   1
    50    19    49   1
    51    20    50   1
    52    21    51   1
    53    22    52   1
    54    23    53   1
    55    24    54   1
    56    27    55   1
    57    27    56   1
    58    28    57   1
    59    29    58   1
    60    29    59   1
    61    29    60   1
    62    30    61   1
    63    30    62   1
    64    30    63   1
    65    31    64   1
    66    32    65   1
    67    35    66   1
    68    35    67   1
    69    35    68   1
@<TRIPOS>SUBSTRUCTURE
     1  MOL      1

