@<TRIPOS>MOLECULE
4tmn_ligand_003
    68    69
SMALL
GAST_HUCK
****
This file was generated by PARSER (from files_GN.cpp)

@<TRIPOS>ATOM
      1 C          49.2272   16.6256   -6.5708 C.2         1 MOL       0.3232
      2 O          48.4039   17.6981   -6.6398 O.2         1 MOL      -0.3774
      3 OA         48.7402   15.3562   -6.4974 O.3         1 MOL      -0.2506
      4 CB         47.3670   14.9501   -6.4439 C.3         1 MOL       0.1113
      5 CG         46.5545   15.6206   -7.4955 C.ar        1 MOL      -0.0130
      6 CD1        45.6985   16.6985   -7.1687 C.ar        1 MOL      -0.0578
      7 CD2        46.6817   15.2363   -8.8505 C.ar        1 MOL      -0.0578
      8 CE1        45.0063   17.3927   -8.1758 C.ar        1 MOL      -0.0685
      9 CE2        45.9794   15.9253   -9.8555 C.ar        1 MOL      -0.0685
     10 CZ         45.1541   17.0149   -9.5194 C.ar        1 MOL      -0.0687
     11 N          50.5657   16.7450   -6.6928 N.am        1 MOL      -0.2403
     12 CA         51.3096   17.8981   -7.1231 C.3         1 MOL       0.1331
     13 P          51.5238   19.0479   -5.9227 P.3         1 MOL       0.0925
     14 OP1        52.6834   19.8478   -6.2321 O.co2       1 MOL      -0.6054
     15 OP2        50.3972   19.9452   -5.8916 O.co2       1 MOL      -0.6054
     16 CB         50.7630   18.4844   -8.4725 C.3         1 MOL       0.0219
     17 CG         50.4627   17.5425   -9.6006 C.ar        1 MOL      -0.0392
     18 CD1        50.9226   16.2028   -9.6560 C.ar        1 MOL      -0.0602
     19 CD2        49.6794   18.0126  -10.6864 C.ar        1 MOL      -0.0602
     20 CE1        50.5613   15.3512  -10.7174 C.ar        1 MOL      -0.0686
     21 CE2        49.3248   17.1702  -11.7526 C.ar        1 MOL      -0.0686
     22 CZ         49.7553   15.8303  -11.7626 C.ar        1 MOL      -0.0687
     23 N          51.5721   18.4000   -4.5553 N.am        1 MOL      -0.2733
     24 CA         52.6049   18.4329   -3.6066 C.3         1 MOL       0.1230
     25 C          53.3752   17.1852   -3.6648 C.2         1 MOL       0.1994
     26 O          54.6000   17.2350   -3.6260 O.2         1 MOL      -0.3949
     27 CB         51.9588   18.6520   -2.2013 C.3         1 MOL      -0.0136
     28 CG         52.9346   19.0898   -1.0598 C.3         1 MOL      -0.0429
     29 CD1        53.3838   20.5760   -1.1867 C.3         1 MOL      -0.0625
     30 CD2        52.2854   18.8606    0.3348 C.3         1 MOL      -0.0625
     31 N          52.7392   16.0154   -3.7403 N.am        1 MOL      -0.2701
     32 CA         53.3091   14.7004   -3.7786 C.3         1 MOL       0.0916
     33 C          52.9923   14.0730   -5.0789 C.2         1 MOL       0.0598
     34 O          51.7158   13.9376   -5.5017 O.co2       1 MOL      -0.5666
     35 CB         52.7325   13.8658   -2.6073 C.3         1 MOL      -0.0300
     36 OXT        53.9644   13.4585   -5.7885 O.co2       1 MOL      -0.5666
     37 H1         46.9851   15.1549   -5.4400 H           1 MOL       0.0776
     38 H2         47.3301   13.8646   -6.5889 H           1 MOL       0.0776
     39 H3         45.5913   16.9920   -6.1964 H           1 MOL       0.0557
     40 H4         47.2914   14.4548   -9.1136 H           1 MOL       0.0557
     41 H5         44.4094   18.1821   -7.9251 H           1 MOL       0.0599
     42 H6         46.0780   15.6436  -10.8307 H           1 MOL       0.0599
     43 H7         44.6611   17.5276  -10.2502 H           1 MOL       0.0559
     44 H8         51.0676   15.9206   -6.6171 H           1 MOL       0.1888
     45 H9         52.3112   17.5121   -7.3307 H           1 MOL       0.0803
     46 H10        51.4667   19.2257   -8.8498 H           1 MOL       0.0465
     47 H11        49.8296   19.0147   -8.2535 H           1 MOL       0.0465
     48 H12        51.5318   15.8311   -8.9245 H           1 MOL       0.0557
     49 H13        49.3502   18.9823  -10.7026 H           1 MOL       0.0557
     50 H14        50.8934   14.3833  -10.7361 H           1 MOL       0.0599
     51 H15        48.7550   17.5285  -12.5224 H           1 MOL       0.0599
     52 H16        49.4949   15.2163  -12.5338 H           1 MOL       0.0559
     53 H17        50.8783   17.8026   -4.3704 H           1 MOL       0.1669
     54 H18        53.2687   19.2803   -3.8031 H           1 MOL       0.0753
     55 H19        51.4497   17.7294   -1.9112 H           1 MOL       0.0311
     56 H20        51.1787   19.4157   -2.2804 H           1 MOL       0.0311
     57 H21        53.8310   18.4659   -1.1018 H           1 MOL       0.0298
     58 H22        54.0494   20.8491   -0.3645 H           1 MOL       0.0232
     59 H23        52.5199   21.2439   -1.1631 H           1 MOL       0.0232
     60 H24        53.9260   20.7465   -2.1165 H           1 MOL       0.0232
     61 H25        52.0453   17.8035    0.4727 H           1 MOL       0.0232
     62 H26        51.3652   19.4423    0.4306 H           1 MOL       0.0232
     63 H27        52.9692   19.1554    1.1338 H           1 MOL       0.0232
     64 H28        51.7701   16.0506   -3.7779 H           1 MOL       0.1875
     65 H29        54.3945   14.7266   -3.6574 H           1 MOL       0.0723
     66 H30        53.1451   12.8513   -2.6220 H           1 MOL       0.0270
     67 H31        51.6419   13.8022   -2.6713 H           1 MOL       0.0270
     68 H32        52.9980   14.3296   -1.6521 H           1 MOL       0.0270
@<TRIPOS>BOND
     1    23    24   1
     2    24    27   1
     3    24    25   1
     4    25    26   2
     5    27    28   1
     6    28    29   1
     7    28    30   1
     8    31    32   1
     9    32    35   1
    10    32    33   1
    11    33    34  ar
    12    33    36  ar
    13    25    31  am
    14     1     2   2
    15     1     3   1
    16    11     1  am
    17     3     4   1
    18     4     5   1
    19     5     6  ar
    20     5     7  ar
    21     6     8  ar
    22     7     9  ar
    23     8    10  ar
    24     9    10  ar
    25    12    11   1
    26    13    12   1
    27    12    16   1
    28    13    14  ar
    29    13    15  ar
    30    13    23  am
    31    16    17   1
    32    17    18  ar
    33    17    19  ar
    34    18    20  ar
    35    19    21  ar
    36    20    22  ar
    37    21    22  ar
    38     4    37   1
    39     4    38   1
    40     6    39   1
    41     7    40   1
    42     8    41   1
    43     9    42   1
    44    10    43   1
    45    11    44   1
    46    12    45   1
    47    16    46   1
    48    16    47   1
    49    18    48   1
    50    19    49   1
    51    20    50   1
    52    21    51   1
    53    22    52   1
    54    23    53   1
    55    24    54   1
    56    27    55   1
    57    27    56   1
    58    28    57   1
    59    29    58   1
    60    29    59   1
    61    29    60   1
    62    30    61   1
    63    30    62   1
    64    30    63   1
    65    31    64   1
    66    32    65   1
    67    35    66   1
    68    35    67   1
    69    35    68   1
@<TRIPOS>SUBSTRUCTURE
     1  MOL      1

