@<TRIPOS>MOLECULE
4tmn_ligand_012
    68    69
SMALL
GAST_HUCK
****
This file was generated by PARSER (from files_GN.cpp)

@<TRIPOS>ATOM
      1 C          48.4110   18.4322  -11.2906 C.2         1 MOL       0.3232
      2 O          49.1604   17.3681  -11.6796 O.2         1 MOL      -0.3774
      3 OA         47.1195   18.5514  -11.6888 O.3         1 MOL      -0.2506
      4 CB         46.3797   17.6384  -12.5156 C.3         1 MOL       0.1113
      5 CG         47.2135   17.0815  -13.6149 C.ar        1 MOL      -0.0130
      6 CD1        47.6689   15.7411  -13.5750 C.ar        1 MOL      -0.0578
      7 CD2        47.5862   17.8924  -14.7146 C.ar        1 MOL      -0.0578
      8 CE1        48.4904   15.2337  -14.5961 C.ar        1 MOL      -0.0685
      9 CE2        48.4121   17.3823  -15.7349 C.ar        1 MOL      -0.0685
     10 CZ         48.8606   16.0511  -15.6774 C.ar        1 MOL      -0.0687
     11 N          48.9474   19.4824  -10.6225 N.am        1 MOL      -0.2403
     12 CA         50.3477   19.7433  -10.4650 C.3         1 MOL       0.1331
     13 P          50.6792   20.3878   -8.9508 P.3         1 MOL       0.0925
     14 OP1        51.5855   21.5019   -9.0610 O.co2       1 MOL      -0.6054
     15 OP2        49.5370   20.9366   -8.2615 O.co2       1 MOL      -0.6054
     16 CB         50.8665   20.5663  -11.6922 C.3         1 MOL       0.0219
     17 CG         50.1064   21.8003  -12.0521 C.ar        1 MOL      -0.0392
     18 CD1        48.7488   21.7129  -12.4435 C.ar        1 MOL      -0.0602
     19 CD2        50.7355   23.0691  -12.0789 C.ar        1 MOL      -0.0602
     20 CE1        48.0298   22.8632  -12.8161 C.ar        1 MOL      -0.0686
     21 CE2        50.0232   24.2175  -12.4665 C.ar        1 MOL      -0.0686
     22 CZ         48.6654   24.1182  -12.8200 C.ar        1 MOL      -0.0687
     23 N          51.4727   19.4109   -8.0999 N.am        1 MOL      -0.2733
     24 CA         51.0468   18.7053   -6.9509 C.3         1 MOL       0.1230
     25 C          52.0380   18.8640   -5.8679 C.2         1 MOL       0.1994
     26 O          52.9875   19.6282   -6.0325 O.2         1 MOL      -0.3949
     27 CB         50.7864   17.2178   -7.3783 C.3         1 MOL      -0.0136
     28 CG         49.6427   16.4476   -6.6333 C.3         1 MOL      -0.0429
     29 CD1        48.3056   17.2467   -6.5668 C.3         1 MOL      -0.0625
     30 CD2        49.4093   15.0627   -7.3066 C.3         1 MOL      -0.0625
     31 N          51.8667   18.2952   -4.6723 N.am        1 MOL      -0.2701
     32 CA         52.6197   18.5853   -3.4767 C.3         1 MOL       0.0916
     33 C          54.0569   18.2333   -3.5774 C.2         1 MOL       0.0598
     34 O          54.5035   16.9558   -3.4666 O.co2       1 MOL      -0.5666
     35 CB         51.9846   17.8932   -2.2497 C.3         1 MOL      -0.0300
     36 OXT        54.9818   19.2148   -3.7062 O.co2       1 MOL      -0.5666
     37 H1         45.5401   18.1835  -12.9521 H           1 MOL       0.0776
     38 H2         45.9690   16.8514  -11.8765 H           1 MOL       0.0776
     39 H3         47.4157   15.1323  -12.7929 H           1 MOL       0.0557
     40 H4         47.2737   18.8661  -14.7668 H           1 MOL       0.0557
     41 H5         48.8154   14.2656  -14.5498 H           1 MOL       0.0599
     42 H6         48.6800   17.9781  -16.5210 H           1 MOL       0.0599
     43 H7         49.4524   15.6784  -16.4210 H           1 MOL       0.0559
     44 H8         48.3382   20.1977  -10.3813 H           1 MOL       0.1888
     45 H9         50.9003   18.8015  -10.5036 H           1 MOL       0.0803
     46 H10        50.8576   19.9046  -12.5651 H           1 MOL       0.0465
     47 H11        51.9214   20.8115  -11.5248 H           1 MOL       0.0465
     48 H12        48.2745   20.8089  -12.4771 H           1 MOL       0.0557
     49 H13        51.7178   23.1663  -11.8181 H           1 MOL       0.0557
     50 H14        47.0468   22.7870  -13.0894 H           1 MOL       0.0599
     51 H15        50.4895   25.1274  -12.4887 H           1 MOL       0.0599
     52 H16        48.1375   24.9535  -13.0809 H           1 MOL       0.0559
     53 H17        52.2565   19.0766   -8.5111 H           1 MOL       0.1669
     54 H18        50.1196   19.1426   -6.5727 H           1 MOL       0.0753
     55 H19        51.7248   16.6581   -7.2696 H           1 MOL       0.0311
     56 H20        50.5329   17.1854   -8.4462 H           1 MOL       0.0311
     57 H21        49.9665   16.2486   -5.6095 H           1 MOL       0.0298
     58 H22        47.4950   16.6060   -6.2026 H           1 MOL       0.0232
     59 H23        48.0314   17.6331   -7.5555 H           1 MOL       0.0232
     60 H24        48.4121   18.0827   -5.8712 H           1 MOL       0.0232
     61 H25        50.3338   14.4770   -7.2983 H           1 MOL       0.0232
     62 H26        49.0789   15.1827   -8.3427 H           1 MOL       0.0232
     63 H27        48.6478   14.4986   -6.7628 H           1 MOL       0.0232
     64 H28        51.1122   17.6958   -4.5585 H           1 MOL       0.1875
     65 H29        52.5466   19.6631   -3.3094 H           1 MOL       0.0723
     66 H30        52.5225   18.1629   -1.3379 H           1 MOL       0.0270
     67 H31        52.0149   16.8063   -2.3646 H           1 MOL       0.0270
     68 H32        50.9479   18.2076   -2.1421 H           1 MOL       0.0270
@<TRIPOS>BOND
     1    23    24   1
     2    24    27   1
     3    24    25   1
     4    25    26   2
     5    27    28   1
     6    28    29   1
     7    28    30   1
     8    31    32   1
     9    32    35   1
    10    32    33   1
    11    33    34  ar
    12    33    36  ar
    13    25    31  am
    14     1     2   2
    15     1     3   1
    16    11     1  am
    17     3     4   1
    18     4     5   1
    19     5     6  ar
    20     5     7  ar
    21     6     8  ar
    22     7     9  ar
    23     8    10  ar
    24     9    10  ar
    25    12    11   1
    26    13    12   1
    27    12    16   1
    28    13    14  ar
    29    13    15  ar
    30    13    23  am
    31    16    17   1
    32    17    18  ar
    33    17    19  ar
    34    18    20  ar
    35    19    21  ar
    36    20    22  ar
    37    21    22  ar
    38     4    37   1
    39     4    38   1
    40     6    39   1
    41     7    40   1
    42     8    41   1
    43     9    42   1
    44    10    43   1
    45    11    44   1
    46    12    45   1
    47    16    46   1
    48    16    47   1
    49    18    48   1
    50    19    49   1
    51    20    50   1
    52    21    51   1
    53    22    52   1
    54    23    53   1
    55    24    54   1
    56    27    55   1
    57    27    56   1
    58    28    57   1
    59    29    58   1
    60    29    59   1
    61    29    60   1
    62    30    61   1
    63    30    62   1
    64    30    63   1
    65    31    64   1
    66    32    65   1
    67    35    66   1
    68    35    67   1
    69    35    68   1
@<TRIPOS>SUBSTRUCTURE
     1  MOL      1

