@<TRIPOS>MOLECULE
4tmn_ligand_022
    68    69
SMALL
GAST_HUCK
****
This file was generated by PARSER (from files_GN.cpp)

@<TRIPOS>ATOM
      1 C          50.1362   16.4795   -9.1274 C.2         1 MOL       0.3232
      2 O          51.1952   15.6377   -9.1034 O.2         1 MOL      -0.3774
      3 OA         49.0395   16.2150   -9.8809 O.3         1 MOL      -0.2506
      4 CB         48.7665   15.0774  -10.7065 C.3         1 MOL       0.1113
      5 CG         48.6319   15.5408  -12.1046 C.ar        1 MOL      -0.0130
      6 CD1        47.3632   15.7751  -12.6863 C.ar        1 MOL      -0.0578
      7 CD2        49.7900   15.8012  -12.8775 C.ar        1 MOL      -0.0578
      8 CE1        47.2552   16.2557  -14.0057 C.ar        1 MOL      -0.0685
      9 CE2        49.6838   16.2675  -14.1986 C.ar        1 MOL      -0.0685
     10 CZ         48.4146   16.5021  -14.7631 C.ar        1 MOL      -0.0687
     11 N          50.1214   17.6298   -8.4197 N.am        1 MOL      -0.2403
     12 CA         51.1346   18.1230   -7.5242 C.3         1 MOL       0.1331
     13 P          51.1316   17.2506   -6.0894 P.3         1 MOL       0.0925
     14 OP1        49.7940   16.7738   -5.8393 O.co2       1 MOL      -0.6054
     15 OP2        51.8799   16.0325   -6.2653 O.co2       1 MOL      -0.6054
     16 CB         50.9122   19.6605   -7.3378 C.3         1 MOL       0.0219
     17 CG         50.8356   20.3851   -8.6437 C.ar        1 MOL      -0.0392
     18 CD1        52.0047   20.5954   -9.4155 C.ar        1 MOL      -0.0602
     19 CD2        49.5912   20.7870   -9.1890 C.ar        1 MOL      -0.0602
     20 CE1        51.9338   21.2016  -10.6848 C.ar        1 MOL      -0.0686
     21 CE2        49.5164   21.3673  -10.4697 C.ar        1 MOL      -0.0686
     22 CZ         50.6896   21.5790  -11.2165 C.ar        1 MOL      -0.0687
     23 N          51.4541   17.9762   -4.7974 N.am        1 MOL      -0.2733
     24 CA         52.6346   17.9982   -4.0123 C.3         1 MOL       0.1230
     25 C          53.2980   16.7019   -3.8450 C.2         1 MOL       0.1994
     26 O          54.5208   16.6337   -3.8883 O.2         1 MOL      -0.3949
     27 CB         52.2385   18.6086   -2.6206 C.3         1 MOL      -0.0136
     28 CG         53.3367   19.1454   -1.6413 C.3         1 MOL      -0.0429
     29 CD1        54.1646   18.0399   -0.9321 C.3         1 MOL      -0.0625
     30 CD2        54.2611   20.2218   -2.2735 C.3         1 MOL      -0.0625
     31 N          52.5674   15.5974   -3.7080 N.am        1 MOL      -0.2701
     32 CA         53.0396   14.2455   -3.6413 C.3         1 MOL       0.0916
     33 C          52.8567   13.6133   -4.9586 C.2         1 MOL       0.0598
     34 O          51.6276   13.4977   -5.5193 O.co2       1 MOL      -0.5666
     35 CB         52.2828   13.4716   -2.5340 C.3         1 MOL      -0.0300
     36 OXT        53.9220   13.1866   -5.6757 O.co2       1 MOL      -0.5666
     37 H1         47.8421   14.6161  -10.3511 H           1 MOL       0.0776
     38 H2         49.5512   14.3215  -10.6343 H           1 MOL       0.0776
     39 H3         46.5081   15.6094  -12.1479 H           1 MOL       0.0557
     40 H4         50.7183   15.6469  -12.4774 H           1 MOL       0.0557
     41 H5         46.3355   16.4321  -14.4124 H           1 MOL       0.0599
     42 H6         50.5278   16.4452  -14.7491 H           1 MOL       0.0599
     43 H7         48.3376   16.8521  -15.7197 H           1 MOL       0.0559
     44 H8         49.3383   18.1900   -8.5369 H           1 MOL       0.1888
     45 H9         52.1189   17.9931   -7.9810 H           1 MOL       0.0803
     46 H10        51.7348   20.0863   -6.7581 H           1 MOL       0.0465
     47 H11        49.9974   19.8265   -6.7621 H           1 MOL       0.0465
     48 H12        52.9160   20.3021   -9.0601 H           1 MOL       0.0557
     49 H13        48.7240   20.6359   -8.6682 H           1 MOL       0.0557
     50 H14        52.7868   21.3561  -11.2274 H           1 MOL       0.0599
     51 H15        48.6099   21.6252  -10.8654 H           1 MOL       0.0599
     52 H16        50.6336   21.9932  -12.1503 H           1 MOL       0.0559
     53 H17        50.8211   18.6253   -4.5712 H           1 MOL       0.1669
     54 H18        53.3110   18.7043   -4.5092 H           1 MOL       0.0753
     55 H19        51.6269   17.8788   -2.0781 H           1 MOL       0.0311
     56 H20        51.5728   19.4568   -2.8071 H           1 MOL       0.0311
     57 H21        52.7895   19.6561   -0.8395 H           1 MOL       0.0298
     58 H22        54.7009   18.4701   -0.0827 H           1 MOL       0.0232
     59 H23        54.8983   17.5991   -1.6054 H           1 MOL       0.0232
     60 H24        53.5101   17.2508   -0.5548 H           1 MOL       0.0232
     61 H25        53.6635   21.0160   -2.7266 H           1 MOL       0.0232
     62 H26        54.9065   19.7862   -3.0374 H           1 MOL       0.0232
     63 H27        54.8929   20.6728   -1.5042 H           1 MOL       0.0232
     64 H28        51.6097   15.7165   -3.7182 H           1 MOL       0.1875
     65 H29        54.1031   14.2238   -3.3881 H           1 MOL       0.0723
     66 H30        52.6276   12.4336   -2.4971 H           1 MOL       0.0270
     67 H31        51.2049   13.4804   -2.7204 H           1 MOL       0.0270
     68 H32        52.4753   13.9323   -1.5638 H           1 MOL       0.0270
@<TRIPOS>BOND
     1    23    24   1
     2    24    27   1
     3    24    25   1
     4    25    26   2
     5    27    28   1
     6    28    29   1
     7    28    30   1
     8    31    32   1
     9    32    35   1
    10    32    33   1
    11    33    34  ar
    12    33    36  ar
    13    25    31  am
    14     1     2   2
    15     1     3   1
    16    11     1  am
    17     3     4   1
    18     4     5   1
    19     5     6  ar
    20     5     7  ar
    21     6     8  ar
    22     7     9  ar
    23     8    10  ar
    24     9    10  ar
    25    12    11   1
    26    13    12   1
    27    12    16   1
    28    13    14  ar
    29    13    15  ar
    30    13    23  am
    31    16    17   1
    32    17    18  ar
    33    17    19  ar
    34    18    20  ar
    35    19    21  ar
    36    20    22  ar
    37    21    22  ar
    38     4    37   1
    39     4    38   1
    40     6    39   1
    41     7    40   1
    42     8    41   1
    43     9    42   1
    44    10    43   1
    45    11    44   1
    46    12    45   1
    47    16    46   1
    48    16    47   1
    49    18    48   1
    50    19    49   1
    51    20    50   1
    52    21    51   1
    53    22    52   1
    54    23    53   1
    55    24    54   1
    56    27    55   1
    57    27    56   1
    58    28    57   1
    59    29    58   1
    60    29    59   1
    61    29    60   1
    62    30    61   1
    63    30    62   1
    64    30    63   1
    65    31    64   1
    66    32    65   1
    67    35    66   1
    68    35    67   1
    69    35    68   1
@<TRIPOS>SUBSTRUCTURE
     1  MOL      1

