@<TRIPOS>MOLECULE
4tmn_ligand_027
    68    69
SMALL
GAST_HUCK
****
This file was generated by PARSER (from files_GN.cpp)

@<TRIPOS>ATOM
      1 C          53.3769   15.2960   -3.8454 C.2         1 MOL       0.3232
      2 O          54.6770   15.5990   -4.0582 O.2         1 MOL      -0.3774
      3 OA         53.0377   14.2007   -3.1066 O.3         1 MOL      -0.2506
      4 CB         53.9014   13.2789   -2.4228 C.3         1 MOL       0.1113
      5 CG         54.9845   12.7502   -3.2922 C.ar        1 MOL      -0.0130
      6 CD1        56.3029   12.5889   -2.8074 C.ar        1 MOL      -0.0578
      7 CD2        54.7074   12.3918   -4.6353 C.ar        1 MOL      -0.0578
      8 CE1        57.3311   12.1356   -3.6543 C.ar        1 MOL      -0.0685
      9 CE2        55.7380   11.9514   -5.4853 C.ar        1 MOL      -0.0685
     10 CZ         57.0496   11.8154   -4.9950 C.ar        1 MOL      -0.0687
     11 N          52.3713   16.0559   -4.3294 N.am        1 MOL      -0.2403
     12 CA         52.4373   17.2064   -5.1991 C.3         1 MOL       0.1331
     13 P          53.2892   18.5292   -4.5781 P.3         1 MOL       0.0925
     14 OP1        54.6843   18.2896   -4.2566 O.co2       1 MOL      -0.6054
     15 OP2        53.4703   19.4589   -5.6722 O.co2       1 MOL      -0.6054
     16 CB         50.9608   17.5882   -5.5885 C.3         1 MOL       0.0219
     17 CG         50.8499   18.5537   -6.7140 C.ar        1 MOL      -0.0392
     18 CD1        50.7221   19.9458   -6.4893 C.ar        1 MOL      -0.0602
     19 CD2        50.8620   18.0839   -8.0544 C.ar        1 MOL      -0.0602
     20 CE1        50.6429   20.8471   -7.5637 C.ar        1 MOL      -0.0686
     21 CE2        50.7440   18.9833   -9.1261 C.ar        1 MOL      -0.0686
     22 CZ         50.6498   20.3635   -8.8881 C.ar        1 MOL      -0.0687
     23 N          52.7315   19.3337   -3.4215 N.am        1 MOL      -0.2733
     24 CA         52.7539   19.0068   -2.0427 C.3         1 MOL       0.1230
     25 C          54.0735   18.8822   -1.4064 C.2         1 MOL       0.1994
     26 O          55.0067   18.3456   -2.0462 O.2         1 MOL      -0.3949
     27 CB         51.7189   17.8808   -1.6867 C.3         1 MOL      -0.0136
     28 CG         52.1737   16.7227   -0.7430 C.3         1 MOL      -0.0429
     29 CD1        52.3253   17.1947    0.7425 C.3         1 MOL      -0.0625
     30 CD2        51.2426   15.4857   -0.8592 C.3         1 MOL      -0.0625
     31 N          54.2349   19.2993   -0.1443 N.am        1 MOL      -0.2701
     32 CA         55.3686   19.3247    0.7323 C.3         1 MOL       0.0916
     33 C          56.1754   20.5277    0.4247 C.2         1 MOL       0.0598
     34 O          56.8208   21.2075    1.4047 O.co2       1 MOL      -0.5666
     35 CB         56.2359   18.0533    0.8358 C.3         1 MOL      -0.0300
     36 OXT        56.1496   21.0681   -0.8223 O.co2       1 MOL      -0.5666
     37 H1         53.2932   12.4433   -2.0657 H           1 MOL       0.0776
     38 H2         54.3072   13.7835   -1.5418 H           1 MOL       0.0776
     39 H3         56.5304   12.8169   -1.8354 H           1 MOL       0.0557
     40 H4         53.7572   12.4755   -5.0052 H           1 MOL       0.0557
     41 H5         58.2797   12.0200   -3.2930 H           1 MOL       0.0599
     42 H6         55.5301   11.7069   -6.4567 H           1 MOL       0.0599
     43 H7         57.7952   11.4856   -5.6115 H           1 MOL       0.0559
     44 H8         51.4773   15.7679   -4.0827 H           1 MOL       0.1888
     45 H9         52.9526   16.8771   -6.1061 H           1 MOL       0.0803
     46 H10        50.4285   17.9777   -4.7153 H           1 MOL       0.0465
     47 H11        50.3940   16.6961   -5.8745 H           1 MOL       0.0465
     48 H12        50.7171   20.3159   -5.5360 H           1 MOL       0.0557
     49 H13        50.9555   17.0824   -8.2531 H           1 MOL       0.0557
     50 H14        50.5839   21.8534   -7.3864 H           1 MOL       0.0599
     51 H15        50.7356   18.6266  -10.0908 H           1 MOL       0.0599
     52 H16        50.6030   21.0175   -9.6740 H           1 MOL       0.0559
     53 H17        52.1218   19.9913   -3.6567 H           1 MOL       0.1669
     54 H18        52.3249   19.9210   -1.6062 H           1 MOL       0.0753
     55 H19        51.3923   17.4301   -2.6082 H           1 MOL       0.0311
     56 H20        50.8178   18.3286   -1.2615 H           1 MOL       0.0311
     57 H21        53.1532   16.3700   -1.0822 H           1 MOL       0.0298
     58 H22        53.3535   17.0289    1.0782 H           1 MOL       0.0232
     59 H23        51.6768   16.6390    1.4235 H           1 MOL       0.0232
     60 H24        52.0788   18.2557    0.8600 H           1 MOL       0.0232
     61 H25        51.2366   15.1072   -1.8853 H           1 MOL       0.0232
     62 H26        50.2200   15.7495   -0.5781 H           1 MOL       0.0232
     63 H27        51.5911   14.6749   -0.2147 H           1 MOL       0.0232
     64 H28        53.4187   19.6333    0.2769 H           1 MOL       0.1875
     65 H29        54.9576   19.4621    1.7378 H           1 MOL       0.0723
     66 H30        56.7901   17.8650   -0.0931 H           1 MOL       0.0270
     67 H31        55.6165   17.1853    1.0524 H           1 MOL       0.0270
     68 H32        56.9619   18.1485    1.6460 H           1 MOL       0.0270
@<TRIPOS>BOND
     1    23    24   1
     2    24    27   1
     3    24    25   1
     4    25    26   2
     5    27    28   1
     6    28    29   1
     7    28    30   1
     8    31    32   1
     9    32    35   1
    10    32    33   1
    11    33    34  ar
    12    33    36  ar
    13    25    31  am
    14     1     2   2
    15     1     3   1
    16    11     1  am
    17     3     4   1
    18     4     5   1
    19     5     6  ar
    20     5     7  ar
    21     6     8  ar
    22     7     9  ar
    23     8    10  ar
    24     9    10  ar
    25    12    11   1
    26    13    12   1
    27    12    16   1
    28    13    14  ar
    29    13    15  ar
    30    13    23  am
    31    16    17   1
    32    17    18  ar
    33    17    19  ar
    34    18    20  ar
    35    19    21  ar
    36    20    22  ar
    37    21    22  ar
    38     4    37   1
    39     4    38   1
    40     6    39   1
    41     7    40   1
    42     8    41   1
    43     9    42   1
    44    10    43   1
    45    11    44   1
    46    12    45   1
    47    16    46   1
    48    16    47   1
    49    18    48   1
    50    19    49   1
    51    20    50   1
    52    21    51   1
    53    22    52   1
    54    23    53   1
    55    24    54   1
    56    27    55   1
    57    27    56   1
    58    28    57   1
    59    29    58   1
    60    29    59   1
    61    29    60   1
    62    30    61   1
    63    30    62   1
    64    30    63   1
    65    31    64   1
    66    32    65   1
    67    35    66   1
    68    35    67   1
    69    35    68   1
@<TRIPOS>SUBSTRUCTURE
     1  MOL      1

