@<TRIPOS>MOLECULE
4tmn_ligand_068
    68    69
SMALL
GAST_HUCK
****
This file was generated by PARSER (from files_GN.cpp)

@<TRIPOS>ATOM
      1 C          52.6247   17.7631   -3.0316 C.2         1 MOL       0.3232
      2 O          53.0373   16.5253   -2.6684 O.2         1 MOL      -0.3774
      3 OA         52.4952   18.7570   -2.1151 O.3         1 MOL      -0.2506
      4 CB         52.6463   18.7121   -0.6894 C.3         1 MOL       0.1113
      5 CG         53.8890   19.3982   -0.2619 C.ar        1 MOL      -0.0130
      6 CD1        54.7721   18.7864    0.6572 C.ar        1 MOL      -0.0578
      7 CD2        54.2001   20.6910   -0.7477 C.ar        1 MOL      -0.0578
      8 CE1        55.9310   19.4544    1.0897 C.ar        1 MOL      -0.0685
      9 CE2        55.3700   21.3514   -0.3274 C.ar        1 MOL      -0.0685
     10 CZ         56.2291   20.7386    0.6017 C.ar        1 MOL      -0.0687
     11 N          52.3150   18.0851   -4.3106 N.am        1 MOL      -0.2403
     12 CA         52.3818   17.2135   -5.4564 C.3         1 MOL       0.1331
     13 P          51.9840   18.1141   -6.8178 P.3         1 MOL       0.0925
     14 OP1        52.9596   19.1628   -6.9793 O.co2       1 MOL      -0.6054
     15 OP2        52.0796   17.2636   -7.9768 O.co2       1 MOL      -0.6054
     16 CB         51.4852   15.9398   -5.2768 C.3         1 MOL       0.0219
     17 CG         51.8094   14.7811   -6.1637 C.ar        1 MOL      -0.0392
     18 CD1        51.1526   14.6047   -7.4058 C.ar        1 MOL      -0.0602
     19 CD2        52.7818   13.8263   -5.7795 C.ar        1 MOL      -0.0602
     20 CE1        51.4973   13.5492   -8.2678 C.ar        1 MOL      -0.0686
     21 CE2        53.1045   12.7475   -6.6252 C.ar        1 MOL      -0.0686
     22 CZ         52.4752   12.6201   -7.8763 C.ar        1 MOL      -0.0687
     23 N          50.6224   18.7849   -6.7165 N.am        1 MOL      -0.2733
     24 CA         49.7514   19.2246   -7.7444 C.3         1 MOL       0.1230
     25 C          48.7288   18.2080   -8.0458 C.2         1 MOL       0.1994
     26 O          48.7382   17.1288   -7.4632 O.2         1 MOL      -0.3949
     27 CB         50.4310   19.8221   -9.0365 C.3         1 MOL      -0.0136
     28 CG         49.7238   21.0680   -9.6781 C.3         1 MOL      -0.0429
     29 CD1        50.5203   22.3835   -9.4360 C.3         1 MOL      -0.0625
     30 CD2        49.4710   20.8574  -11.1972 C.3         1 MOL      -0.0625
     31 N          47.7328   18.4613   -8.8893 N.am        1 MOL      -0.2701
     32 CA         46.6799   17.5685   -9.2961 C.3         1 MOL       0.0916
     33 C          46.6713   17.4877  -10.7730 C.2         1 MOL       0.0598
     34 O          46.5907   18.6058  -11.5357 O.co2       1 MOL      -0.5666
     35 CB         45.2971   18.0480   -8.7849 C.3         1 MOL      -0.0300
     36 OXT        46.7196   16.2910  -11.3942 O.co2       1 MOL      -0.5666
     37 H1         52.6027   17.6836   -0.3249 H           1 MOL       0.0776
     38 H2         51.7946   19.2432   -0.2638 H           1 MOL       0.0776
     39 H3         54.5606   17.8601    1.0373 H           1 MOL       0.0557
     40 H4         53.5812   21.1658   -1.4082 H           1 MOL       0.0557
     41 H5         56.5514   19.0036    1.7689 H           1 MOL       0.0599
     42 H6         55.5932   22.2846   -0.6806 H           1 MOL       0.0599
     43 H7         57.0622   21.2304    0.9367 H           1 MOL       0.0559
     44 H8         52.0548   19.0114   -4.4684 H           1 MOL       0.1888
     45 H9         53.4286   16.8919   -5.5517 H           1 MOL       0.0803
     46 H10        50.4306   16.2093   -5.3829 H           1 MOL       0.0465
     47 H11        51.5877   15.5752   -4.2498 H           1 MOL       0.0465
     48 H12        50.4435   15.2729   -7.7112 H           1 MOL       0.0557
     49 H13        53.2686   13.9116   -4.8817 H           1 MOL       0.0557
     50 H14        51.0479   13.4720   -9.1844 H           1 MOL       0.0599
     51 H15        53.8136   12.0679   -6.3429 H           1 MOL       0.0599
     52 H16        52.7259   11.8525   -8.5045 H           1 MOL       0.0559
     53 H17        50.3029   18.8909   -5.8440 H           1 MOL       0.1669
     54 H18        49.2038   20.0432   -7.2784 H           1 MOL       0.0753
     55 H19        50.5220   19.0151   -9.7680 H           1 MOL       0.0311
     56 H20        51.4530   20.1422   -8.8241 H           1 MOL       0.0311
     57 H21        48.7454   21.2169   -9.2179 H           1 MOL       0.0298
     58 H22        49.9903   23.2396   -9.8622 H           1 MOL       0.0232
     59 H23        51.5098   22.3237   -9.8988 H           1 MOL       0.0232
     60 H24        50.6456   22.5584   -8.3665 H           1 MOL       0.0232
     61 H25        48.8225   19.9908  -11.3516 H           1 MOL       0.0232
     62 H26        50.4163   20.6839  -11.7228 H           1 MOL       0.0232
     63 H27        48.9764   21.7294  -11.6305 H           1 MOL       0.0232
     64 H28        47.7328   19.3216   -9.3239 H           1 MOL       0.1875
     65 H29        46.8629   16.5613   -8.9053 H           1 MOL       0.0723
     66 H30        44.5158   17.3492   -9.0945 H           1 MOL       0.0270
     67 H31        45.0604   19.0400   -9.1749 H           1 MOL       0.0270
     68 H32        45.2972   18.0933   -7.6906 H           1 MOL       0.0270
@<TRIPOS>BOND
     1    23    24   1
     2    24    27   1
     3    24    25   1
     4    25    26   2
     5    27    28   1
     6    28    29   1
     7    28    30   1
     8    31    32   1
     9    32    35   1
    10    32    33   1
    11    33    34  ar
    12    33    36  ar
    13    25    31  am
    14     1     2   2
    15     1     3   1
    16    11     1  am
    17     3     4   1
    18     4     5   1
    19     5     6  ar
    20     5     7  ar
    21     6     8  ar
    22     7     9  ar
    23     8    10  ar
    24     9    10  ar
    25    12    11   1
    26    13    12   1
    27    12    16   1
    28    13    14  ar
    29    13    15  ar
    30    13    23  am
    31    16    17   1
    32    17    18  ar
    33    17    19  ar
    34    18    20  ar
    35    19    21  ar
    36    20    22  ar
    37    21    22  ar
    38     4    37   1
    39     4    38   1
    40     6    39   1
    41     7    40   1
    42     8    41   1
    43     9    42   1
    44    10    43   1
    45    11    44   1
    46    12    45   1
    47    16    46   1
    48    16    47   1
    49    18    48   1
    50    19    49   1
    51    20    50   1
    52    21    51   1
    53    22    52   1
    54    23    53   1
    55    24    54   1
    56    27    55   1
    57    27    56   1
    58    28    57   1
    59    29    58   1
    60    29    59   1
    61    29    60   1
    62    30    61   1
    63    30    62   1
    64    30    63   1
    65    31    64   1
    66    32    65   1
    67    35    66   1
    68    35    67   1
    69    35    68   1
@<TRIPOS>SUBSTRUCTURE
     1  MOL      1

