@<TRIPOS>MOLECULE
4tmn_ligand_021
    68    69
SMALL
GAST_HUCK
****
This file was generated by PARSER (from files_GN.cpp)

@<TRIPOS>ATOM
      1 C          51.3043   19.8711   -7.5857 C.2         1 MOL       0.3232
      2 O          50.0605   20.0274   -7.0715 O.2         1 MOL      -0.3774
      3 OA         52.3857   19.8198   -6.7622 O.3         1 MOL      -0.2506
      4 CB         52.3502   19.8666   -5.3248 C.3         1 MOL       0.1113
      5 CG         52.7864   18.5712   -4.7480 C.ar        1 MOL      -0.0130
      6 CD1        53.7388   18.5159   -3.7041 C.ar        1 MOL      -0.0578
      7 CD2        52.2008   17.3598   -5.1963 C.ar        1 MOL      -0.0578
      8 CE1        54.0976   17.2816   -3.1234 C.ar        1 MOL      -0.0685
      9 CE2        52.5811   16.1259   -4.6392 C.ar        1 MOL      -0.0685
     10 CZ         53.5288   16.0872   -3.5989 C.ar        1 MOL      -0.0687
     11 N          51.4824   19.6821   -8.9197 N.am        1 MOL      -0.2403
     12 CA         50.4618   19.5590   -9.9291 C.3         1 MOL       0.1331
     13 P          49.7320   21.0385  -10.2767 P.3         1 MOL       0.0925
     14 OP1        48.4589   20.8357  -10.9017 O.co2       1 MOL      -0.6054
     15 OP2        49.4653   21.8101   -9.0927 O.co2       1 MOL      -0.6054
     16 CB         49.4787   18.3574   -9.6712 C.3         1 MOL       0.0219
     17 CG         50.0007   17.0390  -10.1267 C.ar        1 MOL      -0.0392
     18 CD1        49.5507   16.4741  -11.3468 C.ar        1 MOL      -0.0602
     19 CD2        50.9320   16.3153   -9.3480 C.ar        1 MOL      -0.0602
     20 CE1        49.9980   15.2095  -11.7580 C.ar        1 MOL      -0.0686
     21 CE2        51.3754   15.0421   -9.7589 C.ar        1 MOL      -0.0686
     22 CZ         50.9050   14.4887  -10.9573 C.ar        1 MOL      -0.0687
     23 N          50.6348   21.8853  -11.1562 N.am        1 MOL      -0.2733
     24 CA         50.3332   22.4307  -12.4219 C.3         1 MOL       0.1230
     25 C          51.5600   22.5460  -13.2303 C.2         1 MOL       0.1994
     26 O          52.6399   22.1799  -12.7923 O.2         1 MOL      -0.3949
     27 CB         49.5425   23.7812  -12.2586 C.3         1 MOL      -0.0136
     28 CG         48.1705   23.9774  -12.9980 C.3         1 MOL      -0.0429
     29 CD1        48.3038   24.1049  -14.5347 C.3         1 MOL      -0.0625
     30 CD2        47.0703   22.9413  -12.6494 C.3         1 MOL      -0.0625
     31 N          51.4831   23.0003  -14.4801 N.am        1 MOL      -0.2701
     32 CA         52.5134   23.0413  -15.4721 C.3         1 MOL       0.0916
     33 C          52.8664   24.4532  -15.7341 C.2         1 MOL       0.0598
     34 O          53.4376   25.1923  -14.7551 O.co2       1 MOL      -0.5666
     35 CB         52.0216   22.2796  -16.7244 C.3         1 MOL      -0.0300
     36 OXT        52.5266   25.0959  -16.8770 O.co2       1 MOL      -0.5666
     37 H1         51.3478   20.0684   -4.9447 H           1 MOL       0.0776
     38 H2         52.9892   20.6899   -5.0062 H           1 MOL       0.0776
     39 H3         54.1629   19.3737   -3.3425 H           1 MOL       0.0557
     40 H4         51.4952   17.3675   -5.9359 H           1 MOL       0.0557
     41 H5         54.7674   17.2537   -2.3524 H           1 MOL       0.0599
     42 H6         52.1600   15.2586   -4.9798 H           1 MOL       0.0599
     43 H7         53.7947   15.1914   -3.1816 H           1 MOL       0.0559
     44 H8         52.4010   19.5581   -9.2032 H           1 MOL       0.1888
     45 H9         50.9988   19.3195  -10.8526 H           1 MOL       0.0803
     46 H10        48.5242   18.5234  -10.1784 H           1 MOL       0.0465
     47 H11        49.2228   18.2791   -8.6159 H           1 MOL       0.0465
     48 H12        48.8875   16.9832  -11.9371 H           1 MOL       0.0557
     49 H13        51.2783   16.6985   -8.4664 H           1 MOL       0.0557
     50 H14        49.6571   14.8103  -12.6336 H           1 MOL       0.0599
     51 H15        52.0291   14.5158   -9.1799 H           1 MOL       0.0599
     52 H16        51.2221   13.5642  -11.2558 H           1 MOL       0.0559
     53 H17        51.4138   22.2022  -10.7398 H           1 MOL       0.1669
     54 H18        49.7127   21.7148  -12.9792 H           1 MOL       0.0753
     55 H19        50.1882   24.6220  -12.5271 H           1 MOL       0.0311
     56 H20        49.3244   23.9360  -11.1976 H           1 MOL       0.0311
     57 H21        47.7860   24.9405  -12.6582 H           1 MOL       0.0298
     58 H22        47.3455   24.3963  -14.9718 H           1 MOL       0.0232
     59 H23        48.6033   23.1564  -14.9832 H           1 MOL       0.0232
     60 H24        49.0352   24.8751  -14.7822 H           1 MOL       0.0232
     61 H25        46.9293   22.8888  -11.5738 H           1 MOL       0.0232
     62 H26        47.3239   21.9502  -13.0241 H           1 MOL       0.0232
     63 H27        46.1157   23.2335  -13.0924 H           1 MOL       0.0232
     64 H28        50.6229   23.3178  -14.7669 H           1 MOL       0.1875
     65 H29        53.4206   22.5298  -15.1379 H           1 MOL       0.0723
     66 H30        52.7919   22.2751  -17.5012 H           1 MOL       0.0270
     67 H31        51.1222   22.7438  -17.1293 H           1 MOL       0.0270
     68 H32        51.7876   21.2459  -16.4657 H           1 MOL       0.0270
@<TRIPOS>BOND
     1    23    24   1
     2    24    27   1
     3    24    25   1
     4    25    26   2
     5    27    28   1
     6    28    29   1
     7    28    30   1
     8    31    32   1
     9    32    35   1
    10    32    33   1
    11    33    34  ar
    12    33    36  ar
    13    25    31  am
    14     1     2   2
    15     1     3   1
    16    11     1  am
    17     3     4   1
    18     4     5   1
    19     5     6  ar
    20     5     7  ar
    21     6     8  ar
    22     7     9  ar
    23     8    10  ar
    24     9    10  ar
    25    12    11   1
    26    13    12   1
    27    12    16   1
    28    13    14  ar
    29    13    15  ar
    30    13    23  am
    31    16    17   1
    32    17    18  ar
    33    17    19  ar
    34    18    20  ar
    35    19    21  ar
    36    20    22  ar
    37    21    22  ar
    38     4    37   1
    39     4    38   1
    40     6    39   1
    41     7    40   1
    42     8    41   1
    43     9    42   1
    44    10    43   1
    45    11    44   1
    46    12    45   1
    47    16    46   1
    48    16    47   1
    49    18    48   1
    50    19    49   1
    51    20    50   1
    52    21    51   1
    53    22    52   1
    54    23    53   1
    55    24    54   1
    56    27    55   1
    57    27    56   1
    58    28    57   1
    59    29    58   1
    60    29    59   1
    61    29    60   1
    62    30    61   1
    63    30    62   1
    64    30    63   1
    65    31    64   1
    66    32    65   1
    67    35    66   1
    68    35    67   1
    69    35    68   1
@<TRIPOS>SUBSTRUCTURE
     1  MOL      1

