@<TRIPOS>MOLECULE
4tmn_ligand_055
    68    69
SMALL
GAST_HUCK
****
This file was generated by PARSER (from files_GN.cpp)

@<TRIPOS>ATOM
      1 C          52.6538   18.3581   -2.6090 C.2         1 MOL       0.3232
      2 O          53.9804   18.0893   -2.5123 O.2         1 MOL      -0.3774
      3 OA         51.9236   18.7103   -1.5177 O.3         1 MOL      -0.2506
      4 CB         52.3158   18.7768   -0.1394 C.3         1 MOL       0.1113
      5 CG         53.6501   19.3823    0.1145 C.ar        1 MOL      -0.0130
      6 CD1        54.6061   18.7263    0.9263 C.ar        1 MOL      -0.0578
      7 CD2        53.9933   20.6244   -0.4707 C.ar        1 MOL      -0.0578
      8 CE1        55.8691   19.3017    1.1557 C.ar        1 MOL      -0.0685
      9 CE2        55.2649   21.1940   -0.2526 C.ar        1 MOL      -0.0685
     10 CZ         56.1932   20.5438    0.5799 C.ar        1 MOL      -0.0687
     11 N          52.0074   18.3271   -3.7974 N.am        1 MOL      -0.2403
     12 CA         52.5933   18.0672   -5.0806 C.3         1 MOL       0.1331
     13 P          52.3266   19.4151   -6.0415 P.3         1 MOL       0.0925
     14 OP1        52.8100   20.5522   -5.2994 O.co2       1 MOL      -0.6054
     15 OP2        53.2443   19.4019   -7.1539 O.co2       1 MOL      -0.6054
     16 CB         52.0107   16.7429   -5.6867 C.3         1 MOL       0.0219
     17 CG         52.6736   15.4308   -5.3799 C.ar        1 MOL      -0.0392
     18 CD1        53.7380   15.2581   -4.4646 C.ar        1 MOL      -0.0602
     19 CD2        52.2672   14.2931   -6.1190 C.ar        1 MOL      -0.0602
     20 CE1        54.3953   14.0215   -4.3167 C.ar        1 MOL      -0.0686
     21 CE2        52.9250   13.0514   -5.9872 C.ar        1 MOL      -0.0686
     22 CZ         53.9970   12.9209   -5.0902 C.ar        1 MOL      -0.0687
     23 N          50.8768   19.7407   -6.3523 N.am        1 MOL      -0.2733
     24 CA         50.1790   19.7906   -7.5807 C.3         1 MOL       0.1230
     25 C          49.4308   18.5468   -7.7982 C.2         1 MOL       0.1994
     26 O          49.3679   18.0412   -8.9122 O.2         1 MOL      -0.3949
     27 CB         50.9953   20.3231   -8.8167 C.3         1 MOL      -0.0136
     28 CG         50.1510   20.9683   -9.9816 C.3         1 MOL      -0.0429
     29 CD1        50.3836   22.5028  -10.1032 C.3         1 MOL      -0.0625
     30 CD2        50.4230   20.2848  -11.3542 C.3         1 MOL      -0.0625
     31 N          48.7622   17.9973   -6.7805 N.am        1 MOL      -0.2701
     32 CA         47.9146   16.8328   -6.7624 C.3         1 MOL       0.0916
     33 C          48.5922   15.5550   -7.0903 C.2         1 MOL       0.0598
     34 O          49.7123   15.5000   -7.8440 O.co2       1 MOL      -0.5666
     35 CB         46.6285   17.0233   -7.6108 C.3         1 MOL      -0.0300
     36 OXT        48.0779   14.3843   -6.6465 O.co2       1 MOL      -0.5666
     37 H1         52.2600   17.7640    0.2649 H           1 MOL       0.0776
     38 H2         51.5667   19.3730    0.3822 H           1 MOL       0.0776
     39 H3         54.3903   17.8265    1.3625 H           1 MOL       0.0557
     40 H4         53.3258   21.1191   -1.0649 H           1 MOL       0.0557
     41 H5         56.5518   18.8192    1.7449 H           1 MOL       0.0599
     42 H6         55.5068   22.0898   -0.6847 H           1 MOL       0.0599
     43 H7         57.1008   20.9762    0.7654 H           1 MOL       0.0559
     44 H8         51.0559   18.5321   -3.7933 H           1 MOL       0.1888
     45 H9         53.6808   17.9751   -5.0205 H           1 MOL       0.0803
     46 H10        52.0224   16.8256   -6.7786 H           1 MOL       0.0465
     47 H11        50.9609   16.6647   -5.3908 H           1 MOL       0.0465
     48 H12        54.0811   16.0370   -3.9022 H           1 MOL       0.0557
     49 H13        51.5053   14.3559   -6.7949 H           1 MOL       0.0557
     50 H14        55.1780   13.9315   -3.6594 H           1 MOL       0.0599
     51 H15        52.6356   12.2518   -6.5552 H           1 MOL       0.0599
     52 H16        54.4897   12.0290   -5.0025 H           1 MOL       0.0559
     53 H17        50.3292   19.8323   -5.5944 H           1 MOL       0.1669
     54 H18        49.4227   20.5567   -7.4001 H           1 MOL       0.0753
     55 H19        51.6059   19.5032   -9.2059 H           1 MOL       0.0311
     56 H20        51.7017   21.0705   -8.4508 H           1 MOL       0.0311
     57 H21        49.0842   20.8294   -9.7741 H           1 MOL       0.0298
     58 H22        49.7241   22.9358  -10.8587 H           1 MOL       0.0232
     59 H23        51.4191   22.7088  -10.3843 H           1 MOL       0.0232
     60 H24        50.1768   22.9926   -9.1512 H           1 MOL       0.0232
     61 H25        50.1563   19.2241  -11.3123 H           1 MOL       0.0232
     62 H26        51.4821   20.3652  -11.6244 H           1 MOL       0.0232
     63 H27        49.8245   20.7519  -12.1448 H           1 MOL       0.0232
     64 H28        48.8527   18.4541   -5.9240 H           1 MOL       0.1875
     65 H29        47.5896   16.7432   -5.7190 H           1 MOL       0.0723
     66 H30        45.9104   16.2267   -7.3993 H           1 MOL       0.0270
     67 H31        46.8598   17.0136   -8.6793 H           1 MOL       0.0270
     68 H32        46.1569   17.9770   -7.3662 H           1 MOL       0.0270
@<TRIPOS>BOND
     1    23    24   1
     2    24    27   1
     3    24    25   1
     4    25    26   2
     5    27    28   1
     6    28    29   1
     7    28    30   1
     8    31    32   1
     9    32    35   1
    10    32    33   1
    11    33    34  ar
    12    33    36  ar
    13    25    31  am
    14     1     2   2
    15     1     3   1
    16    11     1  am
    17     3     4   1
    18     4     5   1
    19     5     6  ar
    20     5     7  ar
    21     6     8  ar
    22     7     9  ar
    23     8    10  ar
    24     9    10  ar
    25    12    11   1
    26    13    12   1
    27    12    16   1
    28    13    14  ar
    29    13    15  ar
    30    13    23  am
    31    16    17   1
    32    17    18  ar
    33    17    19  ar
    34    18    20  ar
    35    19    21  ar
    36    20    22  ar
    37    21    22  ar
    38     4    37   1
    39     4    38   1
    40     6    39   1
    41     7    40   1
    42     8    41   1
    43     9    42   1
    44    10    43   1
    45    11    44   1
    46    12    45   1
    47    16    46   1
    48    16    47   1
    49    18    48   1
    50    19    49   1
    51    20    50   1
    52    21    51   1
    53    22    52   1
    54    23    53   1
    55    24    54   1
    56    27    55   1
    57    27    56   1
    58    28    57   1
    59    29    58   1
    60    29    59   1
    61    29    60   1
    62    30    61   1
    63    30    62   1
    64    30    63   1
    65    31    64   1
    66    32    65   1
    67    35    66   1
    68    35    67   1
    69    35    68   1
@<TRIPOS>SUBSTRUCTURE
     1  MOL      1

