@<TRIPOS>MOLECULE
4tmn_ligand_047
    68    69
SMALL
GAST_HUCK
****
This file was generated by PARSER (from files_GN.cpp)

@<TRIPOS>ATOM
      1 C          51.6745   13.4594   -2.3239 C.2         1 MOL       0.3232
      2 O          51.8816   14.2144   -1.2156 O.2         1 MOL      -0.3774
      3 OA         51.2534   12.1710   -2.2258 O.3         1 MOL      -0.2506
      4 CB         50.9048   11.4378   -1.0433 C.3         1 MOL       0.1113
      5 CG         52.0633   10.6498   -0.5502 C.ar        1 MOL      -0.0130
      6 CD1        53.0118   11.2468    0.3113 C.ar        1 MOL      -0.0578
      7 CD2        52.2397    9.2953   -0.9226 C.ar        1 MOL      -0.0578
      8 CE1        54.1014   10.5047    0.8046 C.ar        1 MOL      -0.0685
      9 CE2        53.3378    8.5550   -0.4372 C.ar        1 MOL      -0.0685
     10 CZ         54.2629    9.1599    0.4320 C.ar        1 MOL      -0.0687
     11 N          51.9194   13.9359   -3.5660 N.am        1 MOL      -0.2403
     12 CA         52.5183   15.2074   -3.8543 C.3         1 MOL       0.1331
     13 P          51.9769   15.8124   -5.3216 P.3         1 MOL       0.0925
     14 OP1        52.2345   14.8667   -6.3801 O.co2       1 MOL      -0.6054
     15 OP2        50.5440   15.9779   -5.3343 O.co2       1 MOL      -0.6054
     16 CB         54.0787   15.1574   -3.6617 C.3         1 MOL       0.0219
     17 CG         54.7842   13.8739   -3.9697 C.ar        1 MOL      -0.0392
     18 CD1        54.5831   13.2151   -5.2077 C.ar        1 MOL      -0.0602
     19 CD2        55.6851   13.2984   -3.0385 C.ar        1 MOL      -0.0602
     20 CE1        55.2190   11.9897   -5.4876 C.ar        1 MOL      -0.0686
     21 CE2        56.3274   12.0750   -3.3196 C.ar        1 MOL      -0.0686
     22 CZ         56.0821   11.4106   -4.5387 C.ar        1 MOL      -0.0687
     23 N          52.6707   17.1162   -5.6695 N.am        1 MOL      -0.2733
     24 CA         52.1932   18.4257   -5.5057 C.3         1 MOL       0.1230
     25 C          51.9354   18.9600   -6.8453 C.2         1 MOL       0.1994
     26 O          52.5505   19.9377   -7.2661 O.2         1 MOL      -0.3949
     27 CB         53.2004   19.2634   -4.6509 C.3         1 MOL      -0.0136
     28 CG         53.3563   18.9019   -3.1369 C.3         1 MOL      -0.0429
     29 CD1        54.2114   19.9799   -2.4117 C.3         1 MOL      -0.0625
     30 CD2        52.0176   18.7082   -2.3671 C.3         1 MOL      -0.0625
     31 N          50.9668   18.4160   -7.5719 N.am        1 MOL      -0.2701
     32 CA         50.4847   18.8403   -8.8568 C.3         1 MOL       0.0916
     33 C          49.4013   19.8206   -8.6361 C.2         1 MOL       0.0598
     34 O          48.1373   19.6305   -9.0777 O.co2       1 MOL      -0.5666
     35 CB         50.0499   17.5894   -9.6596 C.3         1 MOL      -0.0300
     36 OXT        49.6780   20.9784   -7.9956 O.co2       1 MOL      -0.5666
     37 H1         50.0702   10.7818   -1.3020 H           1 MOL       0.0776
     38 H2         50.5490   12.1111   -0.2591 H           1 MOL       0.0776
     39 H3         52.9030   12.2244    0.5976 H           1 MOL       0.0557
     40 H4         51.5767    8.8311   -1.5470 H           1 MOL       0.0557
     41 H5         54.7678   10.9454    1.4419 H           1 MOL       0.0599
     42 H6         53.4627    7.5790   -0.7136 H           1 MOL       0.0599
     43 H7         55.0579    8.6249    0.7899 H           1 MOL       0.0559
     44 H8         51.7941   13.3144   -4.3028 H           1 MOL       0.1888
     45 H9         52.1332   15.9364   -3.1313 H           1 MOL       0.0803
     46 H10        54.2609   15.4209   -2.6156 H           1 MOL       0.0465
     47 H11        54.5699   15.9453   -4.2402 H           1 MOL       0.0465
     48 H12        53.9622   13.6167   -5.9195 H           1 MOL       0.0557
     49 H13        55.8784   13.7596   -2.1449 H           1 MOL       0.0557
     50 H14        55.0482   11.5204   -6.3795 H           1 MOL       0.0599
     51 H15        56.9683   11.6657   -2.6369 H           1 MOL       0.0599
     52 H16        56.5327   10.5120   -4.7375 H           1 MOL       0.0559
     53 H17        53.4939   17.0310   -6.0991 H           1 MOL       0.1669
     54 H18        51.2371   18.4630   -4.9736 H           1 MOL       0.0753
     55 H19        52.9107   20.3152   -4.7173 H           1 MOL       0.0311
     56 H20        54.1866   19.1747   -5.1143 H           1 MOL       0.0311
     57 H21        53.9059   17.9622   -3.0735 H           1 MOL       0.0298
     58 H22        54.3868   19.6980   -1.3722 H           1 MOL       0.0232
     59 H23        53.7029   20.9461   -2.4244 H           1 MOL       0.0232
     60 H24        55.1806   20.0917   -2.8982 H           1 MOL       0.0232
     61 H25        51.4430   17.8772   -2.7756 H           1 MOL       0.0232
     62 H26        51.4042   19.6085   -2.4112 H           1 MOL       0.0232
     63 H27        52.2120   18.4812   -1.3154 H           1 MOL       0.0232
     64 H28        50.4859   17.6777   -7.1637 H           1 MOL       0.1875
     65 H29        51.2668   19.3406   -9.4351 H           1 MOL       0.0723
     66 H30        49.6904   17.8755  -10.6523 H           1 MOL       0.0270
     67 H31        49.2503   17.0545   -9.1395 H           1 MOL       0.0270
     68 H32        50.8964   16.9093   -9.7847 H           1 MOL       0.0270
@<TRIPOS>BOND
     1    23    24   1
     2    24    27   1
     3    24    25   1
     4    25    26   2
     5    27    28   1
     6    28    29   1
     7    28    30   1
     8    31    32   1
     9    32    35   1
    10    32    33   1
    11    33    34  ar
    12    33    36  ar
    13    25    31  am
    14     1     2   2
    15     1     3   1
    16    11     1  am
    17     3     4   1
    18     4     5   1
    19     5     6  ar
    20     5     7  ar
    21     6     8  ar
    22     7     9  ar
    23     8    10  ar
    24     9    10  ar
    25    12    11   1
    26    13    12   1
    27    12    16   1
    28    13    14  ar
    29    13    15  ar
    30    13    23  am
    31    16    17   1
    32    17    18  ar
    33    17    19  ar
    34    18    20  ar
    35    19    21  ar
    36    20    22  ar
    37    21    22  ar
    38     4    37   1
    39     4    38   1
    40     6    39   1
    41     7    40   1
    42     8    41   1
    43     9    42   1
    44    10    43   1
    45    11    44   1
    46    12    45   1
    47    16    46   1
    48    16    47   1
    49    18    48   1
    50    19    49   1
    51    20    50   1
    52    21    51   1
    53    22    52   1
    54    23    53   1
    55    24    54   1
    56    27    55   1
    57    27    56   1
    58    28    57   1
    59    29    58   1
    60    29    59   1
    61    29    60   1
    62    30    61   1
    63    30    62   1
    64    30    63   1
    65    31    64   1
    66    32    65   1
    67    35    66   1
    68    35    67   1
    69    35    68   1
@<TRIPOS>SUBSTRUCTURE
     1  MOL      1

