@<TRIPOS>MOLECULE
4tmn_ligand_025
    68    69
SMALL
GAST_HUCK
****
This file was generated by PARSER (from files_GN.cpp)

@<TRIPOS>ATOM
      1 C          51.2923   14.9620   -6.8966 C.2         1 MOL       0.3232
      2 O          51.6210   14.9106   -8.2109 O.2         1 MOL      -0.3774
      3 OA         50.9113   13.8390   -6.2402 O.3         1 MOL      -0.2506
      4 CB         50.8385   12.5129   -6.7765 C.3         1 MOL       0.1113
      5 CG         52.1385   11.8145   -6.9705 C.ar        1 MOL      -0.0130
      6 CD1        52.1481   10.5601   -7.6222 C.ar        1 MOL      -0.0578
      7 CD2        53.3685   12.3383   -6.4989 C.ar        1 MOL      -0.0578
      8 CE1        53.3478    9.8488   -7.8041 C.ar        1 MOL      -0.0685
      9 CE2        54.5688   11.6245   -6.6738 C.ar        1 MOL      -0.0685
     10 CZ         54.5588   10.3778   -7.3241 C.ar        1 MOL      -0.0687
     11 N          51.2516   16.1253   -6.2076 N.am        1 MOL      -0.2403
     12 CA         51.4725   17.4354   -6.7565 C.3         1 MOL       0.1331
     13 P          52.5910   18.1822   -5.7630 P.3         1 MOL       0.0925
     14 OP1        53.8240   17.4370   -5.7529 O.co2       1 MOL      -0.6054
     15 OP2        52.9206   19.4887   -6.2702 O.co2       1 MOL      -0.6054
     16 CB         50.1357   18.2504   -6.9233 C.3         1 MOL       0.0219
     17 CG         48.9251   17.3901   -7.0101 C.ar        1 MOL      -0.0392
     18 CD1        48.5200   16.8303   -8.2434 C.ar        1 MOL      -0.0602
     19 CD2        48.2623   16.9840   -5.8256 C.ar        1 MOL      -0.0602
     20 CE1        47.4727   15.8894   -8.2908 C.ar        1 MOL      -0.0686
     21 CE2        47.2259   16.0391   -5.8736 C.ar        1 MOL      -0.0686
     22 CZ         46.8286   15.4919   -7.1062 C.ar        1 MOL      -0.0687
     23 N          52.0102   18.3002   -4.3580 N.am        1 MOL      -0.2733
     24 CA         52.7190   18.1915   -3.1407 C.3         1 MOL       0.1230
     25 C          53.3686   16.8775   -3.0065 C.2         1 MOL       0.1994
     26 O          54.5964   16.8196   -2.9720 O.2         1 MOL      -0.3949
     27 CB         51.7451   18.5049   -1.9513 C.3         1 MOL      -0.0136
     28 CG         52.3637   18.9779   -0.5915 C.3         1 MOL      -0.0429
     29 CD1        52.8603   17.8142    0.3100 C.3         1 MOL      -0.0625
     30 CD2        53.4628   20.0651   -0.7592 C.3         1 MOL      -0.0625
     31 N          52.6300   15.7762   -3.0504 N.am        1 MOL      -0.2701
     32 CA         53.0110   14.3880   -3.0928 C.3         1 MOL       0.0916
     33 C          52.5986   13.7636   -1.8206 C.2         1 MOL       0.0598
     34 O          51.7394   12.7193   -1.8065 O.co2       1 MOL      -0.5666
     35 CB         54.4848   14.0253   -3.4230 C.3         1 MOL      -0.0300
     36 OXT        53.1134   14.1797   -0.6421 O.co2       1 MOL      -0.5666
     37 H1         50.3016   12.5607   -7.7290 H           1 MOL       0.0776
     38 H2         50.2369   11.9176   -6.0870 H           1 MOL       0.0776
     39 H3         51.2751   10.1528   -7.9721 H           1 MOL       0.0557
     40 H4         53.4036   13.2367   -6.0164 H           1 MOL       0.0557
     41 H5         53.3391    8.9446   -8.2814 H           1 MOL       0.0599
     42 H6         55.4485   12.0105   -6.3245 H           1 MOL       0.0599
     43 H7         55.4292    9.8602   -7.4523 H           1 MOL       0.0559
     44 H8         50.9489   16.0772   -5.2835 H           1 MOL       0.1888
     45 H9         51.9354   17.3572   -7.7463 H           1 MOL       0.0803
     46 H10        50.2013   18.8649   -7.8273 H           1 MOL       0.0465
     47 H11        49.9953   18.9614   -6.1040 H           1 MOL       0.0465
     48 H12        49.0078   17.0771   -9.1072 H           1 MOL       0.0557
     49 H13        48.5635   17.3368   -4.9159 H           1 MOL       0.0557
     50 H14        47.1978   15.4774   -9.1845 H           1 MOL       0.0599
     51 H15        46.7815   15.7326   -5.0068 H           1 MOL       0.0599
     52 H16        46.0783   14.7965   -7.1374 H           1 MOL       0.0559
     53 H17        51.1543   18.6859   -4.3032 H           1 MOL       0.1669
     54 H18        53.4823   18.9853   -3.1380 H           1 MOL       0.0753
     55 H19        51.1037   17.6329   -1.7676 H           1 MOL       0.0311
     56 H20        51.0738   19.3084   -2.2704 H           1 MOL       0.0311
     57 H21        51.5472   19.4519   -0.0361 H           1 MOL       0.0298
     58 H22        53.1548   18.1992    1.2906 H           1 MOL       0.0232
     59 H23        53.7216   17.3051   -0.1267 H           1 MOL       0.0232
     60 H24        52.0604   17.0849    0.4617 H           1 MOL       0.0232
     61 H25        53.1070   20.8774   -1.3981 H           1 MOL       0.0232
     62 H26        54.3653   19.6343   -1.1993 H           1 MOL       0.0232
     63 H27        53.7224   20.4852    0.2138 H           1 MOL       0.0232
     64 H28        51.6743   15.9298   -3.0899 H           1 MOL       0.1875
     65 H29        52.4085   13.9512   -3.8871 H           1 MOL       0.0723
     66 H30        54.5870   12.9328   -3.5073 H           1 MOL       0.0270
     67 H31        55.1647   14.3749   -2.6479 H           1 MOL       0.0270
     68 H32        54.7799   14.4607   -4.3759 H           1 MOL       0.0270
@<TRIPOS>BOND
     1    23    24   1
     2    24    27   1
     3    24    25   1
     4    25    26   2
     5    27    28   1
     6    28    29   1
     7    28    30   1
     8    31    32   1
     9    32    35   1
    10    32    33   1
    11    33    34  ar
    12    33    36  ar
    13    25    31  am
    14     1     2   2
    15     1     3   1
    16    11     1  am
    17     3     4   1
    18     4     5   1
    19     5     6  ar
    20     5     7  ar
    21     6     8  ar
    22     7     9  ar
    23     8    10  ar
    24     9    10  ar
    25    12    11   1
    26    13    12   1
    27    12    16   1
    28    13    14  ar
    29    13    15  ar
    30    13    23  am
    31    16    17   1
    32    17    18  ar
    33    17    19  ar
    34    18    20  ar
    35    19    21  ar
    36    20    22  ar
    37    21    22  ar
    38     4    37   1
    39     4    38   1
    40     6    39   1
    41     7    40   1
    42     8    41   1
    43     9    42   1
    44    10    43   1
    45    11    44   1
    46    12    45   1
    47    16    46   1
    48    16    47   1
    49    18    48   1
    50    19    49   1
    51    20    50   1
    52    21    51   1
    53    22    52   1
    54    23    53   1
    55    24    54   1
    56    27    55   1
    57    27    56   1
    58    28    57   1
    59    29    58   1
    60    29    59   1
    61    29    60   1
    62    30    61   1
    63    30    62   1
    64    30    63   1
    65    31    64   1
    66    32    65   1
    67    35    66   1
    68    35    67   1
    69    35    68   1
@<TRIPOS>SUBSTRUCTURE
     1  MOL      1

