@<TRIPOS>MOLECULE
4tmn_ligand_056
    68    69
SMALL
GAST_HUCK
****
This file was generated by PARSER (from files_GN.cpp)

@<TRIPOS>ATOM
      1 C          47.8292   14.0493  -14.5299 C.2         1 MOL       0.3232
      2 O          46.5424   14.4796  -14.5474 O.2         1 MOL      -0.3774
      3 OA         48.3836   13.4776  -15.6281 O.3         1 MOL      -0.2506
      4 CB         47.7258   13.1200  -16.8537 C.3         1 MOL       0.1113
      5 CG         48.5145   13.3785  -18.0832 C.ar        1 MOL      -0.0130
      6 CD1        49.4806   14.4079  -18.1544 C.ar        1 MOL      -0.0578
      7 CD2        48.2404   12.6242  -19.2505 C.ar        1 MOL      -0.0578
      8 CE1        50.1693   14.6630  -19.3549 C.ar        1 MOL      -0.0685
      9 CE2        48.9319   12.8737  -20.4484 C.ar        1 MOL      -0.0685
     10 CZ         49.8963   13.8957  -20.5006 C.ar        1 MOL      -0.0687
     11 N          48.5749   14.0996  -13.4032 N.am        1 MOL      -0.2403
     12 CA         48.0826   14.5178  -12.1172 C.3         1 MOL       0.1331
     13 P          49.3915   14.9287  -11.1498 P.3         1 MOL       0.0925
     14 OP1        50.1167   15.9765  -11.8242 O.co2       1 MOL      -0.6054
     15 OP2        48.9651   15.5520   -9.9228 O.co2       1 MOL      -0.6054
     16 CB         47.1013   13.5168  -11.4055 C.3         1 MOL       0.0219
     17 CG         46.3703   12.5750  -12.2965 C.ar        1 MOL      -0.0392
     18 CD1        45.0454   12.8336  -12.7137 C.ar        1 MOL      -0.0602
     19 CD2        47.0099   11.4016  -12.7623 C.ar        1 MOL      -0.0602
     20 CE1        44.3901   11.9656  -13.6079 C.ar        1 MOL      -0.0686
     21 CE2        46.3584   10.5339  -13.6564 C.ar        1 MOL      -0.0686
     22 CZ         45.0522   10.8198  -14.0887 C.ar        1 MOL      -0.0687
     23 N          50.4355   13.8458  -10.9093 N.am        1 MOL      -0.2733
     24 CA         50.3330   12.7143  -10.0666 C.3         1 MOL       0.1230
     25 C          49.7413   13.0362   -8.7648 C.2         1 MOL       0.1994
     26 O          50.2290   13.9500   -8.1061 O.2         1 MOL      -0.3949
     27 CB         51.7475   12.0472   -9.9241 C.3         1 MOL      -0.0136
     28 CG         51.8289   10.5473   -9.4826 C.3         1 MOL      -0.0429
     29 CD1        51.3622   10.2764   -8.0243 C.3         1 MOL      -0.0625
     30 CD2        51.1385    9.5757  -10.4827 C.3         1 MOL      -0.0625
     31 N          48.6810   12.3682   -8.3116 N.am        1 MOL      -0.2701
     32 CA         48.0148   12.5555   -7.0485 C.3         1 MOL       0.0916
     33 C          47.0216   11.4764   -6.8729 C.2         1 MOL       0.0598
     34 O          47.3554   10.2078   -7.2008 O.co2       1 MOL      -0.5666
     35 CB         47.3826   13.9691   -6.9600 C.3         1 MOL      -0.0300
     36 OXT        45.9895   11.6103   -6.0041 O.co2       1 MOL      -0.5666
     37 H1         46.7693   13.6351  -16.9590 H           1 MOL       0.0776
     38 H2         47.5110   12.0499  -16.7765 H           1 MOL       0.0776
     39 H3         49.6779   14.9945  -17.3416 H           1 MOL       0.0557
     40 H4         47.5309   11.8867  -19.2364 H           1 MOL       0.0557
     41 H5         50.8624   15.4162  -19.3986 H           1 MOL       0.0599
     42 H6         48.7269   12.3230  -21.2863 H           1 MOL       0.0599
     43 H7         50.3912   14.0876  -21.3780 H           1 MOL       0.0559
     44 H8         49.5106   13.8406  -13.4685 H           1 MOL       0.1888
     45 H9         47.5408   15.4572  -12.2655 H           1 MOL       0.0803
     46 H10        46.3763   14.1089  -10.8394 H           1 MOL       0.0465
     47 H11        47.6080   12.9097  -10.6595 H           1 MOL       0.0465
     48 H12        44.5515   13.6700  -12.3919 H           1 MOL       0.0557
     49 H13        47.9653   11.1815  -12.4671 H           1 MOL       0.0557
     50 H14        43.4354   12.1690  -13.9147 H           1 MOL       0.0599
     51 H15        46.8360    9.6916  -13.9909 H           1 MOL       0.0599
     52 H16        44.5809   10.1935  -14.7459 H           1 MOL       0.0559
     53 H17        51.0471   13.7523  -11.6159 H           1 MOL       0.1669
     54 H18        49.7130   11.9844  -10.5936 H           1 MOL       0.0753
     55 H19        52.3555   12.6482   -9.2403 H           1 MOL       0.0311
     56 H20        52.2509   12.1040  -10.8979 H           1 MOL       0.0311
     57 H21        52.8947   10.2917   -9.4977 H           1 MOL       0.0298
     58 H22        51.6409    9.2633   -7.7253 H           1 MOL       0.0232
     59 H23        50.2781   10.3706   -7.9403 H           1 MOL       0.0232
     60 H24        51.8375   10.9817   -7.3366 H           1 MOL       0.0232
     61 H25        51.4767    9.7785  -11.5018 H           1 MOL       0.0232
     62 H26        50.0521    9.6828  -10.4402 H           1 MOL       0.0232
     63 H27        51.3900    8.5423  -10.2364 H           1 MOL       0.0232
     64 H28        48.3531   11.6436   -8.8722 H           1 MOL       0.1875
     65 H29        48.7460   12.4539   -6.2397 H           1 MOL       0.0723
     66 H30        46.9366   14.1274   -5.9739 H           1 MOL       0.0270
     67 H31        46.6031   14.0900   -7.7193 H           1 MOL       0.0270
     68 H32        48.1377   14.7450   -7.1119 H           1 MOL       0.0270
@<TRIPOS>BOND
     1    23    24   1
     2    24    27   1
     3    24    25   1
     4    25    26   2
     5    27    28   1
     6    28    29   1
     7    28    30   1
     8    31    32   1
     9    32    35   1
    10    32    33   1
    11    33    34  ar
    12    33    36  ar
    13    25    31  am
    14     1     2   2
    15     1     3   1
    16    11     1  am
    17     3     4   1
    18     4     5   1
    19     5     6  ar
    20     5     7  ar
    21     6     8  ar
    22     7     9  ar
    23     8    10  ar
    24     9    10  ar
    25    12    11   1
    26    13    12   1
    27    12    16   1
    28    13    14  ar
    29    13    15  ar
    30    13    23  am
    31    16    17   1
    32    17    18  ar
    33    17    19  ar
    34    18    20  ar
    35    19    21  ar
    36    20    22  ar
    37    21    22  ar
    38     4    37   1
    39     4    38   1
    40     6    39   1
    41     7    40   1
    42     8    41   1
    43     9    42   1
    44    10    43   1
    45    11    44   1
    46    12    45   1
    47    16    46   1
    48    16    47   1
    49    18    48   1
    50    19    49   1
    51    20    50   1
    52    21    51   1
    53    22    52   1
    54    23    53   1
    55    24    54   1
    56    27    55   1
    57    27    56   1
    58    28    57   1
    59    29    58   1
    60    29    59   1
    61    29    60   1
    62    30    61   1
    63    30    62   1
    64    30    63   1
    65    31    64   1
    66    32    65   1
    67    35    66   1
    68    35    67   1
    69    35    68   1
@<TRIPOS>SUBSTRUCTURE
     1  MOL      1

