@<TRIPOS>MOLECULE
4tmn_ligand_020
    68    69
SMALL
GAST_HUCK
****
This file was generated by PARSER (from files_GN.cpp)

@<TRIPOS>ATOM
      1 C          50.2777   21.6616  -12.3834 C.2         1 MOL       0.3232
      2 O          51.3300   20.8411  -12.6135 O.2         1 MOL      -0.3774
      3 OA         49.9507   22.6226  -13.2888 O.3         1 MOL      -0.2506
      4 CB         50.5262   22.8368  -14.5881 C.3         1 MOL       0.1113
      5 CG         51.6363   23.8225  -14.6956 C.ar        1 MOL      -0.0130
      6 CD1        52.1689   24.5144  -13.5800 C.ar        1 MOL      -0.0578
      7 CD2        52.1764   24.0875  -15.9763 C.ar        1 MOL      -0.0578
      8 CE1        53.2050   25.4537  -13.7522 C.ar        1 MOL      -0.0685
      9 CE2        53.2127   25.0223  -16.1444 C.ar        1 MOL      -0.0685
     10 CZ         53.7241   25.7110  -15.0326 C.ar        1 MOL      -0.0687
     11 N          49.4696   21.5059  -11.3056 N.am        1 MOL      -0.2403
     12 CA         49.5199   20.4632  -10.3072 C.3         1 MOL       0.1331
     13 P          50.7090   20.7480   -9.1562 P.3         1 MOL       0.0925
     14 OP1        51.9411   21.1636   -9.7900 O.co2       1 MOL      -0.6054
     15 OP2        50.3001   21.8878   -8.3744 O.co2       1 MOL      -0.6054
     16 CB         49.5456   19.0096  -10.8962 C.3         1 MOL       0.0219
     17 CG         48.4951   18.7231  -11.9129 C.ar        1 MOL      -0.0392
     18 CD1        48.8395   18.4417  -13.2568 C.ar        1 MOL      -0.0602
     19 CD2        47.1306   18.6495  -11.5370 C.ar        1 MOL      -0.0602
     20 CE1        47.8492   18.1088  -14.2004 C.ar        1 MOL      -0.0686
     21 CE2        46.1408   18.3168  -12.4803 C.ar        1 MOL      -0.0686
     22 CZ         46.4978   18.0479  -13.8142 C.ar        1 MOL      -0.0687
     23 N          51.0717   19.5535   -8.2925 N.am        1 MOL      -0.2733
     24 CA         50.6588   19.2770   -6.9707 C.3         1 MOL       0.1230
     25 C          51.8047   19.1114   -6.0698 C.2         1 MOL       0.1994
     26 O          52.9364   19.3907   -6.4495 O.2         1 MOL      -0.3949
     27 CB         49.6454   18.0798   -6.9740 C.3         1 MOL      -0.0136
     28 CG         50.0868   16.6992   -7.5730 C.3         1 MOL      -0.0429
     29 CD1        51.2503   16.0223   -6.7993 C.3         1 MOL      -0.0625
     30 CD2        48.8685   15.7338   -7.6561 C.3         1 MOL      -0.0625
     31 N          51.6133   18.7552   -4.7988 N.am        1 MOL      -0.2701
     32 CA         52.6082   18.6254   -3.7698 C.3         1 MOL       0.0916
     33 C          53.5458   17.4991   -4.0017 C.2         1 MOL       0.0598
     34 O          53.0713   16.2428   -4.1920 O.co2       1 MOL      -0.5666
     35 CB         51.9142   18.4634   -2.3923 C.3         1 MOL      -0.0300
     36 OXT        54.8042   17.5862   -3.5234 O.co2       1 MOL      -0.5666
     37 H1         49.7076   23.1726  -15.2218 H           1 MOL       0.0776
     38 H2         50.8715   21.8796  -15.0010 H           1 MOL       0.0776
     39 H3         51.7990   24.3514  -12.6409 H           1 MOL       0.0557
     40 H4         51.8109   23.6046  -16.8008 H           1 MOL       0.0557
     41 H5         53.5819   25.9519  -12.9441 H           1 MOL       0.0599
     42 H6         53.5845   25.2039  -17.0754 H           1 MOL       0.0599
     43 H7         54.4713   26.3989  -15.1592 H           1 MOL       0.0559
     44 H8         48.7165   22.1175  -11.2232 H           1 MOL       0.1888
     45 H9         48.5728   20.5454   -9.7593 H           1 MOL       0.0803
     46 H10        49.3940   18.2998  -10.0812 H           1 MOL       0.0465
     47 H11        50.5405   18.8037  -11.3023 H           1 MOL       0.0465
     48 H12        49.8175   18.4727  -13.5579 H           1 MOL       0.0557
     49 H13        46.8517   18.8253  -10.5669 H           1 MOL       0.0557
     50 H14        48.1142   17.9044  -15.1653 H           1 MOL       0.0599
     51 H15        45.1628   18.2602  -12.1950 H           1 MOL       0.0599
     52 H16        45.7856   17.7989  -14.4951 H           1 MOL       0.0559
     53 H17        51.6092   18.9066   -8.6999 H           1 MOL       0.1669
     54 H18        50.1033   20.1295   -6.5562 H           1 MOL       0.0753
     55 H19        48.7748   18.4242   -7.5450 H           1 MOL       0.0311
     56 H20        49.2829   17.9191   -5.9542 H           1 MOL       0.0311
     57 H21        50.4363   16.8620   -8.5927 H           1 MOL       0.0298
     58 H22        51.4418   15.0141   -7.1852 H           1 MOL       0.0232
     59 H23        51.0028   15.9479   -5.7340 H           1 MOL       0.0232
     60 H24        52.1695   16.5959   -6.9207 H           1 MOL       0.0232
     61 H25        48.0770   16.1729   -8.2662 H           1 MOL       0.0232
     62 H26        48.4672   15.5289   -6.6572 H           1 MOL       0.0232
     63 H27        49.1586   14.7862   -8.1138 H           1 MOL       0.0232
     64 H28        50.6931   18.6146   -4.5325 H           1 MOL       0.1875
     65 H29        53.1815   19.5598   -3.7323 H           1 MOL       0.0723
     66 H30        52.6593   18.4542   -1.5934 H           1 MOL       0.0270
     67 H31        51.3461   17.5301   -2.3482 H           1 MOL       0.0270
     68 H32        51.2280   19.2945   -2.2153 H           1 MOL       0.0270
@<TRIPOS>BOND
     1    23    24   1
     2    24    27   1
     3    24    25   1
     4    25    26   2
     5    27    28   1
     6    28    29   1
     7    28    30   1
     8    31    32   1
     9    32    35   1
    10    32    33   1
    11    33    34  ar
    12    33    36  ar
    13    25    31  am
    14     1     2   2
    15     1     3   1
    16    11     1  am
    17     3     4   1
    18     4     5   1
    19     5     6  ar
    20     5     7  ar
    21     6     8  ar
    22     7     9  ar
    23     8    10  ar
    24     9    10  ar
    25    12    11   1
    26    13    12   1
    27    12    16   1
    28    13    14  ar
    29    13    15  ar
    30    13    23  am
    31    16    17   1
    32    17    18  ar
    33    17    19  ar
    34    18    20  ar
    35    19    21  ar
    36    20    22  ar
    37    21    22  ar
    38     4    37   1
    39     4    38   1
    40     6    39   1
    41     7    40   1
    42     8    41   1
    43     9    42   1
    44    10    43   1
    45    11    44   1
    46    12    45   1
    47    16    46   1
    48    16    47   1
    49    18    48   1
    50    19    49   1
    51    20    50   1
    52    21    51   1
    53    22    52   1
    54    23    53   1
    55    24    54   1
    56    27    55   1
    57    27    56   1
    58    28    57   1
    59    29    58   1
    60    29    59   1
    61    29    60   1
    62    30    61   1
    63    30    62   1
    64    30    63   1
    65    31    64   1
    66    32    65   1
    67    35    66   1
    68    35    67   1
    69    35    68   1
@<TRIPOS>SUBSTRUCTURE
     1  MOL      1

