@<TRIPOS>MOLECULE
4tmn_ligand_072
    68    69
SMALL
GAST_HUCK
****
This file was generated by PARSER (from files_GN.cpp)

@<TRIPOS>ATOM
      1 C          49.0751   16.7305   -5.9220 C.2         1 MOL       0.3232
      2 O          48.4031   17.7719   -5.3635 O.2         1 MOL      -0.3774
      3 OA         48.3908   15.6140   -6.2783 O.3         1 MOL      -0.2506
      4 CB         46.9986   15.3205   -6.0633 C.3         1 MOL       0.1113
      5 CG         46.0995   15.8655   -7.1177 C.ar        1 MOL      -0.0130
      6 CD1        45.1801   15.0269   -7.7985 C.ar        1 MOL      -0.0578
      7 CD2        46.1316   17.2432   -7.4516 C.ar        1 MOL      -0.0578
      8 CE1        44.3458   15.5434   -8.8057 C.ar        1 MOL      -0.0685
      9 CE2        45.3105   17.7517   -8.4776 C.ar        1 MOL      -0.0685
     10 CZ         44.4180   16.9015   -9.1588 C.ar        1 MOL      -0.0687
     11 N          50.4122   16.7680   -6.1365 N.am        1 MOL      -0.2403
     12 CA         51.2800   17.9066   -5.9888 C.3         1 MOL       0.1331
     13 P          51.7194   18.3736   -7.5369 P.3         1 MOL       0.0925
     14 OP1        52.6815   19.4456   -7.4658 O.co2       1 MOL      -0.6054
     15 OP2        52.3476   17.2810   -8.2396 O.co2       1 MOL      -0.6054
     16 CB         52.5193   17.5905   -5.0769 C.3         1 MOL       0.0219
     17 CG         52.2360   17.4734   -3.6168 C.ar        1 MOL      -0.0392
     18 CD1        52.7235   16.3726   -2.8683 C.ar        1 MOL      -0.0602
     19 CD2        51.5864   18.5208   -2.9222 C.ar        1 MOL      -0.0602
     20 CE1        52.5418   16.3185   -1.4722 C.ar        1 MOL      -0.0686
     21 CE2        51.3713   18.4506   -1.5306 C.ar        1 MOL      -0.0686
     22 CZ         51.8530   17.3440   -0.8055 C.ar        1 MOL      -0.0687
     23 N          50.5147   18.9240   -8.2808 N.am        1 MOL      -0.2733
     24 CA         50.0246   18.5049   -9.5305 C.3         1 MOL       0.1230
     25 C          49.5929   19.6907  -10.2553 C.2         1 MOL       0.1994
     26 O          48.4040   19.9740  -10.3312 O.2         1 MOL      -0.3949
     27 CB         48.9430   17.3918   -9.3431 C.3         1 MOL      -0.0136
     28 CG         48.4508   16.6317  -10.6187 C.3         1 MOL      -0.0429
     29 CD1        49.5382   16.4231  -11.7083 C.3         1 MOL      -0.0625
     30 CD2        47.8475   15.2548  -10.2243 C.3         1 MOL      -0.0625
     31 N          50.5192   20.4867  -10.7832 N.am        1 MOL      -0.2701
     32 CA         50.3113   21.6730  -11.5551 C.3         1 MOL       0.0916
     33 C          51.1906   21.6080  -12.7351 C.2         1 MOL       0.0598
     34 O          52.4836   22.0061  -12.6429 O.co2       1 MOL      -0.5666
     35 CB         50.5781   22.9300  -10.6851 C.3         1 MOL      -0.0300
     36 OXT        50.9019   20.7233  -13.7206 O.co2       1 MOL      -0.5666
     37 H1         46.6902   15.7012   -5.0870 H           1 MOL       0.0776
     38 H2         46.9109   14.2309   -6.0129 H           1 MOL       0.0776
     39 H3         45.1209   14.0303   -7.5684 H           1 MOL       0.0557
     40 H4         46.7693   17.8844   -6.9621 H           1 MOL       0.0557
     41 H5         43.6968   14.9236   -9.2987 H           1 MOL       0.0599
     42 H6         45.3674   18.7453   -8.7362 H           1 MOL       0.0599
     43 H7         43.8284   17.2707   -9.9134 H           1 MOL       0.0559
     44 H8         50.8146   15.9530   -6.4869 H           1 MOL       0.1888
     45 H9         50.7360   18.7552   -5.5569 H           1 MOL       0.0803
     46 H10        53.2677   18.3866   -5.1526 H           1 MOL       0.0465
     47 H11        53.0081   16.6836   -5.4500 H           1 MOL       0.0465
     48 H12        53.2357   15.6188   -3.3293 H           1 MOL       0.0557
     49 H13        51.2748   19.3608   -3.4181 H           1 MOL       0.0557
     50 H14        52.9278   15.5346   -0.9398 H           1 MOL       0.0599
     51 H15        50.8893   19.2124   -1.0460 H           1 MOL       0.0599
     52 H16        51.7229   17.3029    0.2081 H           1 MOL       0.0559
     53 H17        49.9893   19.5380   -7.8054 H           1 MOL       0.1669
     54 H18        50.8267   18.0506  -10.1177 H           1 MOL       0.0753
     55 H19        48.0706   17.8430   -8.8548 H           1 MOL       0.0311
     56 H20        49.3551   16.6627   -8.6427 H           1 MOL       0.0311
     57 H21        47.6439   17.2199  -11.0718 H           1 MOL       0.0298
     58 H22        49.1493   15.8044  -12.5211 H           1 MOL       0.0232
     59 H23        50.4161   15.9309  -11.2877 H           1 MOL       0.0232
     60 H24        49.8353   17.3767  -12.1378 H           1 MOL       0.0232
     61 H25        47.0604   15.3813   -9.4733 H           1 MOL       0.0232
     62 H26        48.6187   14.6057   -9.8015 H           1 MOL       0.0232
     63 H27        47.4031   14.7672  -11.0933 H           1 MOL       0.0232
     64 H28        51.4434   20.2299  -10.6350 H           1 MOL       0.1875
     65 H29        49.2777   21.7280  -11.9159 H           1 MOL       0.0723
     66 H30        50.4700   23.8381  -11.2802 H           1 MOL       0.0270
     67 H31        51.5847   22.9006  -10.2658 H           1 MOL       0.0270
     68 H32        49.8631   22.9724   -9.8611 H           1 MOL       0.0270
@<TRIPOS>BOND
     1    23    24   1
     2    24    27   1
     3    24    25   1
     4    25    26   2
     5    27    28   1
     6    28    29   1
     7    28    30   1
     8    31    32   1
     9    32    35   1
    10    32    33   1
    11    33    34  ar
    12    33    36  ar
    13    25    31  am
    14     1     2   2
    15     1     3   1
    16    11     1  am
    17     3     4   1
    18     4     5   1
    19     5     6  ar
    20     5     7  ar
    21     6     8  ar
    22     7     9  ar
    23     8    10  ar
    24     9    10  ar
    25    12    11   1
    26    13    12   1
    27    12    16   1
    28    13    14  ar
    29    13    15  ar
    30    13    23  am
    31    16    17   1
    32    17    18  ar
    33    17    19  ar
    34    18    20  ar
    35    19    21  ar
    36    20    22  ar
    37    21    22  ar
    38     4    37   1
    39     4    38   1
    40     6    39   1
    41     7    40   1
    42     8    41   1
    43     9    42   1
    44    10    43   1
    45    11    44   1
    46    12    45   1
    47    16    46   1
    48    16    47   1
    49    18    48   1
    50    19    49   1
    51    20    50   1
    52    21    51   1
    53    22    52   1
    54    23    53   1
    55    24    54   1
    56    27    55   1
    57    27    56   1
    58    28    57   1
    59    29    58   1
    60    29    59   1
    61    29    60   1
    62    30    61   1
    63    30    62   1
    64    30    63   1
    65    31    64   1
    66    32    65   1
    67    35    66   1
    68    35    67   1
    69    35    68   1
@<TRIPOS>SUBSTRUCTURE
     1  MOL      1

