@<TRIPOS>MOLECULE
4tmn_ligand_034
    68    69
SMALL
GAST_HUCK
****
This file was generated by PARSER (from files_GN.cpp)

@<TRIPOS>ATOM
      1 C          52.3759   18.8342   -2.9736 C.2         1 MOL       0.3232
      2 O          53.5229   19.5396   -3.1569 O.2         1 MOL      -0.3774
      3 OA         51.6524   18.9099   -1.8291 O.3         1 MOL      -0.2506
      4 CB         51.8849   19.7304   -0.6810 C.3         1 MOL       0.1113
      5 CG         53.2176   19.4975   -0.0897 C.ar        1 MOL      -0.0130
      6 CD1        53.4214   18.4179    0.7990 C.ar        1 MOL      -0.0578
      7 CD2        54.3121   20.3323   -0.4173 C.ar        1 MOL      -0.0578
      8 CE1        54.6812   18.2179    1.4017 C.ar        1 MOL      -0.0685
      9 CE2        55.5663   20.1427    0.1953 C.ar        1 MOL      -0.0685
     10 CZ         55.7403   19.1022    1.1258 C.ar        1 MOL      -0.0687
     11 N          51.9517   17.9229   -3.8728 N.am        1 MOL      -0.2403
     12 CA         52.6857   17.3820   -4.9686 C.3         1 MOL       0.1331
     13 P          52.1127   18.0119   -6.4163 P.3         1 MOL       0.0925
     14 OP1        52.9020   19.1692   -6.7577 O.co2       1 MOL      -0.6054
     15 OP2        52.3426   17.0357   -7.4518 O.co2       1 MOL      -0.6054
     16 CB         52.5904   15.8209   -4.8822 C.3         1 MOL       0.0219
     17 CG         52.5714   15.1424   -3.5432 C.ar        1 MOL      -0.0392
     18 CD1        53.0106   15.7518   -2.3377 C.ar        1 MOL      -0.0602
     19 CD2        52.0713   13.8178   -3.4649 C.ar        1 MOL      -0.0602
     20 CE1        52.8630   15.0960   -1.0955 C.ar        1 MOL      -0.0686
     21 CE2        51.9348   13.1567   -2.2285 C.ar        1 MOL      -0.0686
     22 CZ         52.3166   13.8048   -1.0402 C.ar        1 MOL      -0.0687
     23 N          50.6544   18.4477   -6.3814 N.am        1 MOL      -0.2733
     24 CA         49.6951   18.4716   -7.4261 C.3         1 MOL       0.1230
     25 C          48.9804   17.1987   -7.4647 C.2         1 MOL       0.1994
     26 O          49.6223   16.1486   -7.4525 O.2         1 MOL      -0.3949
     27 CB         50.1630   18.9303   -8.8517 C.3         1 MOL      -0.0136
     28 CG         50.5167   20.4558   -8.9644 C.3         1 MOL      -0.0429
     29 CD1        51.8358   20.6892   -9.7454 C.3         1 MOL      -0.0625
     30 CD2        49.3664   21.2771   -9.6168 C.3         1 MOL      -0.0625
     31 N          47.6506   17.1813   -7.4974 N.am        1 MOL      -0.2701
     32 CA         46.8098   16.0195   -7.5062 C.3         1 MOL       0.0916
     33 C          45.3733   16.4040   -7.4605 C.2         1 MOL       0.0598
     34 O          44.9575   17.6850   -7.6102 O.co2       1 MOL      -0.5666
     35 CB         47.1639   15.0630   -6.3487 C.3         1 MOL      -0.0300
     36 OXT        44.4231   15.4475   -7.3344 O.co2       1 MOL      -0.5666
     37 H1         51.1171   19.4984    0.0577 H           1 MOL       0.0776
     38 H2         51.7343   20.7789   -0.9622 H           1 MOL       0.0776
     39 H3         52.6572   17.7754    1.0182 H           1 MOL       0.0557
     40 H4         54.2044   21.0922   -1.0920 H           1 MOL       0.0557
     41 H5         54.8174   17.4414    2.0560 H           1 MOL       0.0599
     42 H6         56.3419   20.7774   -0.0161 H           1 MOL       0.0599
     43 H7         56.6289   18.9937    1.6033 H           1 MOL       0.0559
     44 H8         51.1580   17.4300   -3.6220 H           1 MOL       0.1888
     45 H9         53.7445   17.6391   -4.8861 H           1 MOL       0.0803
     46 H10        53.4339   15.3854   -5.4323 H           1 MOL       0.0465
     47 H11        51.6746   15.5211   -5.4077 H           1 MOL       0.0465
     48 H12        53.4282   16.6747   -2.3378 H           1 MOL       0.0557
     49 H13        51.7748   13.3273   -4.3078 H           1 MOL       0.0557
     50 H14        53.1490   15.5626   -0.2351 H           1 MOL       0.0599
     51 H15        51.5399   12.2184   -2.1893 H           1 MOL       0.0599
     52 H16        52.2004   13.3355   -0.1419 H           1 MOL       0.0559
     53 H17        50.3415   18.7658   -5.5577 H           1 MOL       0.1669
     54 H18        48.9856   19.2332   -7.1066 H           1 MOL       0.0753
     55 H19        49.3772   18.7022   -9.5803 H           1 MOL       0.0311
     56 H20        51.0210   18.3308   -9.1516 H           1 MOL       0.0311
     57 H21        50.6708   20.8630   -7.9559 H           1 MOL       0.0298
     58 H22        52.0192   21.7545   -9.9005 H           1 MOL       0.0232
     59 H23        51.8039   20.1995  -10.7228 H           1 MOL       0.0232
     60 H24        52.6753   20.2843   -9.1769 H           1 MOL       0.0232
     61 H25        48.4322   21.1182   -9.0814 H           1 MOL       0.0232
     62 H26        49.2213   20.9803  -10.6586 H           1 MOL       0.0232
     63 H27        49.6017   22.3434   -9.5937 H           1 MOL       0.0232
     64 H28        47.1993   18.0333   -7.5071 H           1 MOL       0.1875
     65 H29        46.9464   15.4916   -8.4574 H           1 MOL       0.0723
     66 H30        46.5048   14.1898   -6.3442 H           1 MOL       0.0270
     67 H31        47.0603   15.5740   -5.3904 H           1 MOL       0.0270
     68 H32        48.1913   14.7064   -6.4408 H           1 MOL       0.0270
@<TRIPOS>BOND
     1    23    24   1
     2    24    27   1
     3    24    25   1
     4    25    26   2
     5    27    28   1
     6    28    29   1
     7    28    30   1
     8    31    32   1
     9    32    35   1
    10    32    33   1
    11    33    34  ar
    12    33    36  ar
    13    25    31  am
    14     1     2   2
    15     1     3   1
    16    11     1  am
    17     3     4   1
    18     4     5   1
    19     5     6  ar
    20     5     7  ar
    21     6     8  ar
    22     7     9  ar
    23     8    10  ar
    24     9    10  ar
    25    12    11   1
    26    13    12   1
    27    12    16   1
    28    13    14  ar
    29    13    15  ar
    30    13    23  am
    31    16    17   1
    32    17    18  ar
    33    17    19  ar
    34    18    20  ar
    35    19    21  ar
    36    20    22  ar
    37    21    22  ar
    38     4    37   1
    39     4    38   1
    40     6    39   1
    41     7    40   1
    42     8    41   1
    43     9    42   1
    44    10    43   1
    45    11    44   1
    46    12    45   1
    47    16    46   1
    48    16    47   1
    49    18    48   1
    50    19    49   1
    51    20    50   1
    52    21    51   1
    53    22    52   1
    54    23    53   1
    55    24    54   1
    56    27    55   1
    57    27    56   1
    58    28    57   1
    59    29    58   1
    60    29    59   1
    61    29    60   1
    62    30    61   1
    63    30    62   1
    64    30    63   1
    65    31    64   1
    66    32    65   1
    67    35    66   1
    68    35    67   1
    69    35    68   1
@<TRIPOS>SUBSTRUCTURE
     1  MOL      1

