@<TRIPOS>MOLECULE
4tmn_ligand_061
    68    69
SMALL
GAST_HUCK
****
This file was generated by PARSER (from files_GN.cpp)

@<TRIPOS>ATOM
      1 C          51.9517   17.5350   -4.2561 C.2         1 MOL       0.3232
      2 O          52.9153   16.5996   -4.4387 O.2         1 MOL      -0.3774
      3 OA         51.7626   18.0751   -3.0221 O.3         1 MOL      -0.2506
      4 CB         52.4584   17.7910   -1.7945 C.3         1 MOL       0.1113
      5 CG         53.4771   18.8368   -1.5395 C.ar        1 MOL      -0.0130
      6 CD1        54.8616   18.5443   -1.5446 C.ar        1 MOL      -0.0578
      7 CD2        53.0677   20.1666   -1.2905 C.ar        1 MOL      -0.0578
      8 CE1        55.8098   19.5641   -1.3474 C.ar        1 MOL      -0.0685
      9 CE2        54.0164   21.1866   -1.1010 C.ar        1 MOL      -0.0685
     10 CZ         55.3902   20.8851   -1.1200 C.ar        1 MOL      -0.0687
     11 N          51.1408   17.9293   -5.2695 N.am        1 MOL      -0.2403
     12 CA         51.1268   17.3742   -6.5995 C.3         1 MOL       0.1331
     13 P          51.4559   18.5534   -7.7454 P.3         1 MOL       0.0925
     14 OP1        52.6615   19.2378   -7.3180 O.co2       1 MOL      -0.6054
     15 OP2        51.7466   17.9231   -9.0141 O.co2       1 MOL      -0.6054
     16 CB         49.7705   16.6180   -6.7880 C.3         1 MOL       0.0219
     17 CG         49.8262   15.4417   -7.7000 C.ar        1 MOL      -0.0392
     18 CD1        50.7872   14.4186   -7.5081 C.ar        1 MOL      -0.0602
     19 CD2        48.8895   15.2888   -8.7467 C.ar        1 MOL      -0.0602
     20 CE1        50.8281   13.2942   -8.3539 C.ar        1 MOL      -0.0686
     21 CE2        48.9225   14.1656   -9.5924 C.ar        1 MOL      -0.0686
     22 CZ         49.8973   13.1720   -9.3996 C.ar        1 MOL      -0.0687
     23 N          50.4004   19.6271   -7.8948 N.am        1 MOL      -0.2733
     24 CA         50.1046   20.4734   -8.9986 C.3         1 MOL       0.1230
     25 C          48.8697   20.0370   -9.6614 C.2         1 MOL       0.1994
     26 O          48.5763   20.4781  -10.7662 O.2         1 MOL      -0.3949
     27 CB         51.3281   20.8212   -9.9345 C.3         1 MOL      -0.0136
     28 CG         51.3447   22.1118  -10.8443 C.3         1 MOL      -0.0429
     29 CD1        51.0536   21.8530  -12.3510 C.3         1 MOL      -0.0625
     30 CD2        50.4881   23.2916  -10.3131 C.3         1 MOL      -0.0625
     31 N          47.9934   19.2798   -9.0120 N.am        1 MOL      -0.2701
     32 CA         46.6356   18.9433   -9.3478 C.3         1 MOL       0.0916
     33 C          46.4810   17.7543  -10.2184 C.2         1 MOL       0.0598
     34 O          47.0251   17.7072  -11.4547 O.co2       1 MOL      -0.5666
     35 CB         45.8392   20.1491   -9.9052 C.3         1 MOL      -0.0300
     36 OXT        45.5245   16.8424   -9.9309 O.co2       1 MOL      -0.5666
     37 H1         52.9134   16.7979   -1.8193 H           1 MOL       0.0776
     38 H2         51.7335   17.7953   -0.9785 H           1 MOL       0.0776
     39 H3         55.1889   17.5869   -1.6963 H           1 MOL       0.0557
     40 H4         52.0732   20.4030   -1.2609 H           1 MOL       0.0557
     41 H5         56.8071   19.3444   -1.3745 H           1 MOL       0.0599
     42 H6         53.7067   22.1468   -0.9526 H           1 MOL       0.0599
     43 H7         56.0800   21.6266   -0.9763 H           1 MOL       0.0559
     44 H8         50.4566   18.5858   -5.0598 H           1 MOL       0.1888
     45 H9         51.9347   16.6454   -6.6940 H           1 MOL       0.0803
     46 H10        49.0024   17.3312   -7.1054 H           1 MOL       0.0465
     47 H11        49.4352   16.2319   -5.8232 H           1 MOL       0.0465
     48 H12        51.4680   14.4826   -6.7489 H           1 MOL       0.0557
     49 H13        48.1651   15.9908   -8.8912 H           1 MOL       0.0557
     50 H14        51.5281   12.5634   -8.2047 H           1 MOL       0.0599
     51 H15        48.2361   14.0666  -10.3433 H           1 MOL       0.0599
     52 H16        49.9240   12.3554  -10.0149 H           1 MOL       0.0559
     53 H17        49.8749   19.7673   -7.1334 H           1 MOL       0.1669
     54 H18        49.8374   21.4063   -8.5012 H           1 MOL       0.0753
     55 H19        51.5298   19.9501  -10.5644 H           1 MOL       0.0311
     56 H20        52.1973   20.9270   -9.2781 H           1 MOL       0.0311
     57 H21        52.3808   22.4708  -10.8324 H           1 MOL       0.0298
     58 H22        51.2822   22.7521  -12.9311 H           1 MOL       0.0232
     59 H23        50.0072   21.6021  -12.5238 H           1 MOL       0.0232
     60 H24        51.6815   21.0416  -12.7312 H           1 MOL       0.0232
     61 H25        50.6980   23.4664   -9.2566 H           1 MOL       0.0232
     62 H26        49.4233   23.0845  -10.4369 H           1 MOL       0.0232
     63 H27        50.7333   24.2033  -10.8639 H           1 MOL       0.0232
     64 H28        48.2965   18.9376   -8.1570 H           1 MOL       0.1875
     65 H29        46.1730   18.6955   -8.3871 H           1 MOL       0.0723
     66 H30        44.7756   19.8973   -9.9524 H           1 MOL       0.0270
     67 H31        46.1844   20.4170  -10.9066 H           1 MOL       0.0270
     68 H32        45.9594   21.0121   -9.2466 H           1 MOL       0.0270
@<TRIPOS>BOND
     1    23    24   1
     2    24    27   1
     3    24    25   1
     4    25    26   2
     5    27    28   1
     6    28    29   1
     7    28    30   1
     8    31    32   1
     9    32    35   1
    10    32    33   1
    11    33    34  ar
    12    33    36  ar
    13    25    31  am
    14     1     2   2
    15     1     3   1
    16    11     1  am
    17     3     4   1
    18     4     5   1
    19     5     6  ar
    20     5     7  ar
    21     6     8  ar
    22     7     9  ar
    23     8    10  ar
    24     9    10  ar
    25    12    11   1
    26    13    12   1
    27    12    16   1
    28    13    14  ar
    29    13    15  ar
    30    13    23  am
    31    16    17   1
    32    17    18  ar
    33    17    19  ar
    34    18    20  ar
    35    19    21  ar
    36    20    22  ar
    37    21    22  ar
    38     4    37   1
    39     4    38   1
    40     6    39   1
    41     7    40   1
    42     8    41   1
    43     9    42   1
    44    10    43   1
    45    11    44   1
    46    12    45   1
    47    16    46   1
    48    16    47   1
    49    18    48   1
    50    19    49   1
    51    20    50   1
    52    21    51   1
    53    22    52   1
    54    23    53   1
    55    24    54   1
    56    27    55   1
    57    27    56   1
    58    28    57   1
    59    29    58   1
    60    29    59   1
    61    29    60   1
    62    30    61   1
    63    30    62   1
    64    30    63   1
    65    31    64   1
    66    32    65   1
    67    35    66   1
    68    35    67   1
    69    35    68   1
@<TRIPOS>SUBSTRUCTURE
     1  MOL      1

