@<TRIPOS>MOLECULE
4tmn_ligand_058
    68    69
SMALL
GAST_HUCK
****
This file was generated by PARSER (from files_GN.cpp)

@<TRIPOS>ATOM
      1 C          51.5830   12.6425   -3.6570 C.2         1 MOL       0.3232
      2 O          52.6034   12.2781   -4.4713 O.2         1 MOL      -0.3774
      3 OA         50.5533   11.7923   -3.4051 O.3         1 MOL      -0.2506
      4 CB         50.3961   10.4579   -3.9046 C.3         1 MOL       0.1113
      5 CG         49.2866   10.3729   -4.8850 C.ar        1 MOL      -0.0130
      6 CD1        49.1364   11.3674   -5.8827 C.ar        1 MOL      -0.0578
      7 CD2        48.4100    9.2606   -4.9015 C.ar        1 MOL      -0.0578
      8 CE1        48.1355   11.2571   -6.8639 C.ar        1 MOL      -0.0685
      9 CE2        47.4184    9.1421   -5.8937 C.ar        1 MOL      -0.0685
     10 CZ         47.2793   10.1422   -6.8748 C.ar        1 MOL      -0.0687
     11 N          51.5406   13.8643   -3.0785 N.am        1 MOL      -0.2403
     12 CA         52.4649   14.9518   -3.2426 C.3         1 MOL       0.1331
     13 P          52.3942   15.5800   -4.8030 P.3         1 MOL       0.0925
     14 OP1        53.1594   14.7354   -5.6934 O.co2       1 MOL      -0.6054
     15 OP2        51.0625   15.5303   -5.3498 O.co2       1 MOL      -0.6054
     16 CB         53.9167   14.6764   -2.6953 C.3         1 MOL       0.0219
     17 CG         54.0965   13.4320   -1.8927 C.ar        1 MOL      -0.0392
     18 CD1        55.0682   12.4648   -2.2505 C.ar        1 MOL      -0.0602
     19 CD2        53.2748   13.1788   -0.7674 C.ar        1 MOL      -0.0602
     20 CE1        55.1869   11.2626   -1.5284 C.ar        1 MOL      -0.0686
     21 CE2        53.3820   11.9717   -0.0542 C.ar        1 MOL      -0.0686
     22 CZ         54.3269   11.0044   -0.4426 C.ar        1 MOL      -0.0687
     23 N          52.9817   16.9731   -4.9459 N.am        1 MOL      -0.2733
     24 CA         52.2893   18.1950   -4.9227 C.3         1 MOL       0.1230
     25 C          52.0709   18.6560   -6.2988 C.2         1 MOL       0.1994
     26 O          52.8002   19.5134   -6.7918 O.2         1 MOL      -0.3949
     27 CB         53.0848   19.2198   -4.0501 C.3         1 MOL      -0.0136
     28 CG         53.2706   18.8654   -2.5391 C.3         1 MOL      -0.0429
     29 CD1        54.1432   19.9478   -1.8407 C.3         1 MOL      -0.0625
     30 CD2        51.9264   18.6585   -1.7772 C.3         1 MOL      -0.0625
     31 N          51.0357   18.1875   -6.9877 N.am        1 MOL      -0.2701
     32 CA         50.6635   18.5271   -8.3378 C.3         1 MOL       0.0916
     33 C          49.4248   19.3334   -8.2958 C.2         1 MOL       0.0598
     34 O          48.2023   18.7616   -8.3965 O.co2       1 MOL      -0.5666
     35 CB         50.5309   17.2281   -9.1658 C.3         1 MOL      -0.0300
     36 OXT        49.4775   20.6156   -7.8665 O.co2       1 MOL      -0.5666
     37 H1         50.2234    9.8048   -3.0446 H           1 MOL       0.0776
     38 H2         51.3069   10.1025   -4.3919 H           1 MOL       0.0776
     39 H3         49.7587   12.1777   -5.9025 H           1 MOL       0.0557
     40 H4         48.5004    8.5135   -4.2090 H           1 MOL       0.0557
     41 H5         48.0392   11.9859   -7.5787 H           1 MOL       0.0599
     42 H6         46.8025    8.3239   -5.9125 H           1 MOL       0.0599
     43 H7         46.5623   10.0555   -7.5990 H           1 MOL       0.0559
     44 H8         50.7887   14.0274   -2.4852 H           1 MOL       0.1888
     45 H9         52.0467   15.7450   -2.6129 H           1 MOL       0.0803
     46 H10        54.2213   15.5077   -2.0582 H           1 MOL       0.0465
     47 H11        54.6304   14.6675   -3.5259 H           1 MOL       0.0465
     48 H12        55.6857   12.6209   -3.0501 H           1 MOL       0.0557
     49 H13        52.5808   13.8669   -0.4678 H           1 MOL       0.0557
     50 H14        55.9007   10.5760   -1.7846 H           1 MOL       0.0599
     51 H15        52.7723   11.7965    0.7460 H           1 MOL       0.0599
     52 H16        54.4070   10.1293    0.0769 H           1 MOL       0.0559
     53 H17        53.9127   17.0198   -5.0818 H           1 MOL       0.1669
     54 H18        51.3027   18.0804   -4.4512 H           1 MOL       0.0753
     55 H19        52.5846   20.1889   -4.1235 H           1 MOL       0.0311
     56 H20        54.0762   19.3375   -4.4977 H           1 MOL       0.0311
     57 H21        53.8319   17.9268   -2.4748 H           1 MOL       0.0298
     58 H22        54.3209   19.6822   -0.7953 H           1 MOL       0.0232
     59 H23        53.6513   20.9272   -1.8765 H           1 MOL       0.0232
     60 H24        55.1159   20.0293   -2.3380 H           1 MOL       0.0232
     61 H25        51.4225   17.7648   -2.1502 H           1 MOL       0.0232
     62 H26        51.2631   19.5201   -1.9068 H           1 MOL       0.0232
     63 H27        52.1153   18.5184   -0.7082 H           1 MOL       0.0232
     64 H28        50.4597   17.5543   -6.5305 H           1 MOL       0.1875
     65 H29        51.4254   19.1399   -8.8306 H           1 MOL       0.0723
     66 H30        50.2493   17.4672  -10.1933 H           1 MOL       0.0270
     67 H31        49.7777   16.5640   -8.7376 H           1 MOL       0.0270
     68 H32        51.4887   16.7028   -9.1832 H           1 MOL       0.0270
@<TRIPOS>BOND
     1    23    24   1
     2    24    27   1
     3    24    25   1
     4    25    26   2
     5    27    28   1
     6    28    29   1
     7    28    30   1
     8    31    32   1
     9    32    35   1
    10    32    33   1
    11    33    34  ar
    12    33    36  ar
    13    25    31  am
    14     1     2   2
    15     1     3   1
    16    11     1  am
    17     3     4   1
    18     4     5   1
    19     5     6  ar
    20     5     7  ar
    21     6     8  ar
    22     7     9  ar
    23     8    10  ar
    24     9    10  ar
    25    12    11   1
    26    13    12   1
    27    12    16   1
    28    13    14  ar
    29    13    15  ar
    30    13    23  am
    31    16    17   1
    32    17    18  ar
    33    17    19  ar
    34    18    20  ar
    35    19    21  ar
    36    20    22  ar
    37    21    22  ar
    38     4    37   1
    39     4    38   1
    40     6    39   1
    41     7    40   1
    42     8    41   1
    43     9    42   1
    44    10    43   1
    45    11    44   1
    46    12    45   1
    47    16    46   1
    48    16    47   1
    49    18    48   1
    50    19    49   1
    51    20    50   1
    52    21    51   1
    53    22    52   1
    54    23    53   1
    55    24    54   1
    56    27    55   1
    57    27    56   1
    58    28    57   1
    59    29    58   1
    60    29    59   1
    61    29    60   1
    62    30    61   1
    63    30    62   1
    64    30    63   1
    65    31    64   1
    66    32    65   1
    67    35    66   1
    68    35    67   1
    69    35    68   1
@<TRIPOS>SUBSTRUCTURE
     1  MOL      1

