@<TRIPOS>MOLECULE
4tmn_ligand_038
    68    69
SMALL
GAST_HUCK
****
This file was generated by PARSER (from files_GN.cpp)

@<TRIPOS>ATOM
      1 C          53.0454   16.0273   -3.6566 C.2         1 MOL       0.3232
      2 O          52.4918   16.3387   -2.4610 O.2         1 MOL      -0.3774
      3 OA         53.6471   14.8219   -3.8377 O.3         1 MOL      -0.2506
      4 CB         53.8539   13.7580   -2.8947 C.3         1 MOL       0.1113
      5 CG         52.6029   13.1085   -2.4154 C.ar        1 MOL      -0.0130
      6 CD1        51.5772   12.7629   -3.3232 C.ar        1 MOL      -0.0578
      7 CD2        52.4344   12.7860   -1.0447 C.ar        1 MOL      -0.0578
      8 CE1        50.4058   12.1212   -2.8749 C.ar        1 MOL      -0.0685
      9 CE2        51.2713   12.1320   -0.5994 C.ar        1 MOL      -0.0685
     10 CZ         50.2539   11.8046   -1.5118 C.ar        1 MOL      -0.0687
     11 N          52.9872   16.8589   -4.7198 N.am        1 MOL      -0.2403
     12 CA         52.2382   18.0857   -4.8021 C.3         1 MOL       0.1331
     13 P          51.9057   18.4224   -6.4121 P.3         1 MOL       0.0925
     14 OP1        52.8870   19.3546   -6.9228 O.co2       1 MOL      -0.6054
     15 OP2        51.9789   17.2300   -7.2283 O.co2       1 MOL      -0.6054
     16 CB         53.0050   19.2600   -4.1066 C.3         1 MOL       0.0219
     17 CG         52.9494   19.2403   -2.6203 C.ar        1 MOL      -0.0392
     18 CD1        54.1183   19.4069   -1.8363 C.ar        1 MOL      -0.0602
     19 CD2        51.7076   19.1000   -1.9570 C.ar        1 MOL      -0.0602
     20 CE1        54.0452   19.4235   -0.4315 C.ar        1 MOL      -0.0686
     21 CE2        51.6298   19.1275   -0.5506 C.ar        1 MOL      -0.0686
     22 CZ         52.8010   19.2826    0.2145 C.ar        1 MOL      -0.0687
     23 N          50.5446   19.0908   -6.5565 N.am        1 MOL      -0.2733
     24 CA         49.8565   19.3905   -7.7485 C.3         1 MOL       0.1230
     25 C          49.0736   18.2359   -8.1816 C.2         1 MOL       0.1994
     26 O          49.2615   17.7436   -9.2881 O.2         1 MOL      -0.3949
     27 CB         50.7439   20.0634   -8.8567 C.3         1 MOL      -0.0136
     28 CG         50.0546   20.7885  -10.0815 C.3         1 MOL      -0.0429
     29 CD1        48.5240   20.5629  -10.2803 C.3         1 MOL      -0.0625
     30 CD2        50.3436   22.3203  -10.0873 C.3         1 MOL      -0.0625
     31 N          48.2041   17.6855   -7.3416 N.am        1 MOL      -0.2701
     32 CA         47.3349   16.5652   -7.5812 C.3         1 MOL       0.0916
     33 C          45.9426   17.0148   -7.8202 C.2         1 MOL       0.0598
     34 O          45.6545   18.2479   -8.2991 O.co2       1 MOL      -0.5666
     35 CB         47.4164   15.6230   -6.3563 C.3         1 MOL      -0.0300
     36 OXT        44.9185   16.1396   -7.6884 O.co2       1 MOL      -0.5666
     37 H1         54.4484   14.1452   -2.0618 H           1 MOL       0.0776
     38 H2         54.4543   12.9985   -3.3989 H           1 MOL       0.0776
     39 H3         51.6739   12.9749   -4.3190 H           1 MOL       0.0557
     40 H4         53.1663   13.0060   -0.3646 H           1 MOL       0.0557
     41 H5         49.6661   11.8816   -3.5400 H           1 MOL       0.0599
     42 H6         51.1688   11.8832    0.3863 H           1 MOL       0.0599
     43 H7         49.4088   11.3282   -1.1883 H           1 MOL       0.0559
     44 H8         53.4096   16.5413   -5.5399 H           1 MOL       0.1888
     45 H9         51.2697   17.9543   -4.3055 H           1 MOL       0.0803
     46 H10        52.5849   20.2175   -4.4216 H           1 MOL       0.0465
     47 H11        54.0473   19.2569   -4.4485 H           1 MOL       0.0465
     48 H12        55.0306   19.5251   -2.2807 H           1 MOL       0.0557
     49 H13        50.8457   19.0003   -2.5059 H           1 MOL       0.0557
     50 H14        54.8970   19.5547    0.1283 H           1 MOL       0.0599
     51 H15        50.7259   19.0305   -0.0860 H           1 MOL       0.0599
     52 H16        52.7414   19.3042    1.2352 H           1 MOL       0.0559
     53 H17        50.0242   19.1274   -5.7706 H           1 MOL       0.1669
     54 H18        49.1524   20.1673   -7.4591 H           1 MOL       0.0753
     55 H19        51.4172   19.3031   -9.2572 H           1 MOL       0.0311
     56 H20        51.3927   20.7832   -8.3479 H           1 MOL       0.0311
     57 H21        50.5279   20.3976  -10.9936 H           1 MOL       0.0298
     58 H22        48.1641   21.1222  -11.1544 H           1 MOL       0.0232
     59 H23        47.9646   20.8984   -9.4042 H           1 MOL       0.0232
     60 H24        48.3167   19.5055  -10.4549 H           1 MOL       0.0232
     61 H25        51.4209   22.5087  -10.0649 H           1 MOL       0.0232
     62 H26        49.8926   22.7980   -9.2137 H           1 MOL       0.0232
     63 H27        49.9434   22.7973  -10.9860 H           1 MOL       0.0232
     64 H28        48.1309   18.0943   -6.4643 H           1 MOL       0.1875
     65 H29        47.6421   16.0016   -8.4659 H           1 MOL       0.0723
     66 H30        46.7728   14.7503   -6.4889 H           1 MOL       0.0270
     67 H31        47.1147   16.1471   -5.4462 H           1 MOL       0.0270
     68 H32        48.4433   15.2729   -6.2311 H           1 MOL       0.0270
@<TRIPOS>BOND
     1    23    24   1
     2    24    27   1
     3    24    25   1
     4    25    26   2
     5    27    28   1
     6    28    29   1
     7    28    30   1
     8    31    32   1
     9    32    35   1
    10    32    33   1
    11    33    34  ar
    12    33    36  ar
    13    25    31  am
    14     1     2   2
    15     1     3   1
    16    11     1  am
    17     3     4   1
    18     4     5   1
    19     5     6  ar
    20     5     7  ar
    21     6     8  ar
    22     7     9  ar
    23     8    10  ar
    24     9    10  ar
    25    12    11   1
    26    13    12   1
    27    12    16   1
    28    13    14  ar
    29    13    15  ar
    30    13    23  am
    31    16    17   1
    32    17    18  ar
    33    17    19  ar
    34    18    20  ar
    35    19    21  ar
    36    20    22  ar
    37    21    22  ar
    38     4    37   1
    39     4    38   1
    40     6    39   1
    41     7    40   1
    42     8    41   1
    43     9    42   1
    44    10    43   1
    45    11    44   1
    46    12    45   1
    47    16    46   1
    48    16    47   1
    49    18    48   1
    50    19    49   1
    51    20    50   1
    52    21    51   1
    53    22    52   1
    54    23    53   1
    55    24    54   1
    56    27    55   1
    57    27    56   1
    58    28    57   1
    59    29    58   1
    60    29    59   1
    61    29    60   1
    62    30    61   1
    63    30    62   1
    64    30    63   1
    65    31    64   1
    66    32    65   1
    67    35    66   1
    68    35    67   1
    69    35    68   1
@<TRIPOS>SUBSTRUCTURE
     1  MOL      1

