@<TRIPOS>MOLECULE
4tmn_ligand_031
    68    69
SMALL
GAST_HUCK
****
This file was generated by PARSER (from files_GN.cpp)

@<TRIPOS>ATOM
      1 C          50.2165   16.8875   -8.9627 C.2         1 MOL       0.3232
      2 O          48.9649   16.6167   -8.5235 O.2         1 MOL      -0.3774
      3 OA         50.9009   16.0004   -9.7299 O.3         1 MOL      -0.2506
      4 CB         50.4533   14.7213  -10.1868 C.3         1 MOL       0.1113
      5 CG         49.3309   14.8568  -11.1514 C.ar        1 MOL      -0.0130
      6 CD1        48.0356   14.3858  -10.8379 C.ar        1 MOL      -0.0578
      7 CD2        49.5492   15.4644  -12.4115 C.ar        1 MOL      -0.0578
      8 CE1        46.9816   14.5189  -11.7617 C.ar        1 MOL      -0.0685
      9 CE2        48.4982   15.5898  -13.3397 C.ar        1 MOL      -0.0685
     10 CZ         47.2151   15.1104  -13.0155 C.ar        1 MOL      -0.0687
     11 N          50.8276   18.0551   -8.6812 N.am        1 MOL      -0.2403
     12 CA         50.2455   19.1536   -7.9657 C.3         1 MOL       0.1331
     13 P          51.0725   20.5583   -8.3578 P.3         1 MOL       0.0925
     14 OP1        50.3743   21.6983   -7.8217 O.co2       1 MOL      -0.6054
     15 OP2        52.4039   20.5347   -7.8071 O.co2       1 MOL      -0.6054
     16 CB         50.1241   18.8825   -6.4265 C.3         1 MOL       0.0219
     17 CG         51.3110   18.2523   -5.7744 C.ar        1 MOL      -0.0392
     18 CD1        51.3987   16.8431   -5.6538 C.ar        1 MOL      -0.0602
     19 CD2        52.3543   19.0373   -5.2216 C.ar        1 MOL      -0.0602
     20 CE1        52.5009   16.2393   -5.0202 C.ar        1 MOL      -0.0686
     21 CE2        53.4713   18.4340   -4.6120 C.ar        1 MOL      -0.0686
     22 CZ         53.5398   17.0336   -4.5054 C.ar        1 MOL      -0.0687
     23 N          51.2799   20.7030   -9.8523 N.am        1 MOL      -0.2733
     24 CA         50.5088   21.4408  -10.7667 C.3         1 MOL       0.1230
     25 C          49.5473   20.5628  -11.4272 C.2         1 MOL       0.1994
     26 O          49.9828   19.6400  -12.1084 O.2         1 MOL      -0.3949
     27 CB         51.4908   22.1200  -11.7800 C.3         1 MOL      -0.0136
     28 CG         50.8635   22.8849  -12.9899 C.3         1 MOL      -0.0429
     29 CD1        49.9087   24.0382  -12.5706 C.3         1 MOL      -0.0625
     30 CD2        51.9791   23.4346  -13.9195 C.3         1 MOL      -0.0625
     31 N          48.2450   20.8188  -11.3418 N.am        1 MOL      -0.2701
     32 CA         47.1766   20.1973  -12.0724 C.3         1 MOL       0.0916
     33 C          47.0437   18.7370  -11.8499 C.2         1 MOL       0.0598
     34 O          46.0195   18.0666  -12.4190 O.co2       1 MOL      -0.5666
     35 CB         47.2580   20.5589  -13.5788 C.3         1 MOL      -0.0300
     36 OXT        47.8160   18.0591  -10.9695 O.co2       1 MOL      -0.5666
     37 H1         50.1877   14.1116   -9.3177 H           1 MOL       0.0776
     38 H2         51.2885   14.2236  -10.6859 H           1 MOL       0.0776
     39 H3         47.8447   13.9602   -9.9283 H           1 MOL       0.0557
     40 H4         50.4739   15.8232  -12.6568 H           1 MOL       0.0557
     41 H5         46.0464   14.1864  -11.5220 H           1 MOL       0.0599
     42 H6         48.6660   16.0275  -14.2490 H           1 MOL       0.0599
     43 H7         46.4508   15.2022  -13.6887 H           1 MOL       0.0559
     44 H8         51.7180   18.1747   -9.0401 H           1 MOL       0.1888
     45 H9         49.2311   19.3073   -8.3557 H           1 MOL       0.0803
     46 H10        49.2581   18.2340   -6.2704 H           1 MOL       0.0465
     47 H11        49.8856   19.8073   -5.8976 H           1 MOL       0.0465
     48 H12        50.6547   16.2466   -6.0194 H           1 MOL       0.0557
     49 H13        52.3101   20.0585   -5.2572 H           1 MOL       0.0557
     50 H14        52.5453   15.2223   -4.9343 H           1 MOL       0.0599
     51 H15        54.2262   19.0162   -4.2379 H           1 MOL       0.0599
     52 H16        54.3433   16.5974   -4.0487 H           1 MOL       0.0559
     53 H17        51.8778   20.0896  -10.2290 H           1 MOL       0.1669
     54 H18        49.9811   22.2563  -10.2576 H           1 MOL       0.0753
     55 H19        52.1527   21.3437  -12.1844 H           1 MOL       0.0311
     56 H20        52.1233   22.8157  -11.2172 H           1 MOL       0.0311
     57 H21        50.2834   22.1749  -13.5875 H           1 MOL       0.0298
     58 H22        49.5077   24.5339  -13.4558 H           1 MOL       0.0232
     59 H23        50.4468   24.7757  -11.9726 H           1 MOL       0.0232
     60 H24        49.0687   23.6568  -11.9902 H           1 MOL       0.0232
     61 H25        52.6450   22.6286  -14.2408 H           1 MOL       0.0232
     62 H26        52.5690   24.1897  -13.3942 H           1 MOL       0.0232
     63 H27        51.5451   23.8896  -14.8124 H           1 MOL       0.0232
     64 H28        47.9893   21.5580  -10.7652 H           1 MOL       0.1875
     65 H29        46.2555   20.6480  -11.6909 H           1 MOL       0.0723
     66 H30        46.3549   20.2355  -14.1013 H           1 MOL       0.0270
     67 H31        48.1236   20.0829  -14.0451 H           1 MOL       0.0270
     68 H32        47.3495   21.6416  -13.7002 H           1 MOL       0.0270
@<TRIPOS>BOND
     1    23    24   1
     2    24    27   1
     3    24    25   1
     4    25    26   2
     5    27    28   1
     6    28    29   1
     7    28    30   1
     8    31    32   1
     9    32    35   1
    10    32    33   1
    11    33    34  ar
    12    33    36  ar
    13    25    31  am
    14     1     2   2
    15     1     3   1
    16    11     1  am
    17     3     4   1
    18     4     5   1
    19     5     6  ar
    20     5     7  ar
    21     6     8  ar
    22     7     9  ar
    23     8    10  ar
    24     9    10  ar
    25    12    11   1
    26    13    12   1
    27    12    16   1
    28    13    14  ar
    29    13    15  ar
    30    13    23  am
    31    16    17   1
    32    17    18  ar
    33    17    19  ar
    34    18    20  ar
    35    19    21  ar
    36    20    22  ar
    37    21    22  ar
    38     4    37   1
    39     4    38   1
    40     6    39   1
    41     7    40   1
    42     8    41   1
    43     9    42   1
    44    10    43   1
    45    11    44   1
    46    12    45   1
    47    16    46   1
    48    16    47   1
    49    18    48   1
    50    19    49   1
    51    20    50   1
    52    21    51   1
    53    22    52   1
    54    23    53   1
    55    24    54   1
    56    27    55   1
    57    27    56   1
    58    28    57   1
    59    29    58   1
    60    29    59   1
    61    29    60   1
    62    30    61   1
    63    30    62   1
    64    30    63   1
    65    31    64   1
    66    32    65   1
    67    35    66   1
    68    35    67   1
    69    35    68   1
@<TRIPOS>SUBSTRUCTURE
     1  MOL      1

