@<TRIPOS>MOLECULE
4tmn_ligand_041
    68    69
SMALL
GAST_HUCK
****
This file was generated by PARSER (from files_GN.cpp)

@<TRIPOS>ATOM
      1 C          50.1322   16.7792   -8.9076 C.2         1 MOL       0.3232
      2 O          48.8108   16.6770   -8.6197 O.2         1 MOL      -0.3774
      3 OA         50.7324   15.8883   -9.7394 O.3         1 MOL      -0.2506
      4 CB         50.0952   14.8075  -10.4299 C.3         1 MOL       0.1113
      5 CG         49.0823   15.3154  -11.3890 C.ar        1 MOL      -0.0130
      6 CD1        47.7037   15.3200  -11.0693 C.ar        1 MOL      -0.0578
      7 CD2        49.4889   15.8466  -12.6362 C.ar        1 MOL      -0.0578
      8 CE1        46.7603   15.8549  -11.9643 C.ar        1 MOL      -0.0685
      9 CE2        48.5457   16.3727  -13.5378 C.ar        1 MOL      -0.0685
     10 CZ         47.1784   16.3754  -13.2046 C.ar        1 MOL      -0.0687
     11 N          50.8794   17.7985   -8.4306 N.am        1 MOL      -0.2403
     12 CA         50.3645   18.9336   -7.7187 C.3         1 MOL       0.1331
     13 P          51.1035   20.3229   -8.2916 P.3         1 MOL       0.0925
     14 OP1        50.3785   21.4917   -7.8576 O.co2       1 MOL      -0.6054
     15 OP2        52.4368   20.4272   -7.7523 O.co2       1 MOL      -0.6054
     16 CB         50.4127   18.7577   -6.1654 C.3         1 MOL       0.0219
     17 CG         51.6548   18.1575   -5.6061 C.ar        1 MOL      -0.0392
     18 CD1        51.7355   16.7576   -5.3957 C.ar        1 MOL      -0.0602
     19 CD2        52.7602   18.9602   -5.2344 C.ar        1 MOL      -0.0602
     20 CE1        52.8740   16.1831   -4.8071 C.ar        1 MOL      -0.0686
     21 CE2        53.9114   18.3826   -4.6738 C.ar        1 MOL      -0.0686
     22 CZ         53.9680   16.9946   -4.4571 C.ar        1 MOL      -0.0687
     23 N          51.2240   20.4168   -9.8008 N.am        1 MOL      -0.2733
     24 CA         50.2329   20.2256  -10.7895 C.3         1 MOL       0.1230
     25 C          50.7428   20.8135  -12.0231 C.2         1 MOL       0.1994
     26 O          50.8876   20.0988  -13.0105 O.2         1 MOL      -0.3949
     27 CB         48.7893   20.7784  -10.4871 C.3         1 MOL      -0.0136
     28 CG         47.5954   20.0034  -11.1605 C.3         1 MOL      -0.0429
     29 CD1        46.3655   19.9075  -10.2071 C.3         1 MOL      -0.0625
     30 CD2        47.1411   20.6148  -12.5186 C.3         1 MOL      -0.0625
     31 N          51.0050   22.1200  -12.0721 N.am        1 MOL      -0.2701
     32 CA         51.4025   22.9135  -13.2016 C.3         1 MOL       0.0916
     33 C          50.2088   23.3956  -13.9294 C.2         1 MOL       0.0598
     34 O          49.2141   23.9972  -13.2438 O.co2       1 MOL      -0.5666
     35 CB         52.4710   22.2274  -14.0934 C.3         1 MOL      -0.0300
     36 OXT        50.0423   23.2082  -15.2606 O.co2       1 MOL      -0.5666
     37 H1         49.6604   14.1282   -9.6935 H           1 MOL       0.0776
     38 H2         50.8583   14.2536  -10.9778 H           1 MOL       0.0776
     39 H3         47.3784   14.9511  -10.1722 H           1 MOL       0.0557
     40 H4         50.4779   15.8579  -12.8943 H           1 MOL       0.0557
     41 H5         45.7684   15.8698  -11.7164 H           1 MOL       0.0599
     42 H6         48.8498   16.7528  -14.4378 H           1 MOL       0.0599
     43 H7         46.4916   16.7577  -13.8588 H           1 MOL       0.0559
     44 H8         51.8159   17.8043   -8.6813 H           1 MOL       0.1888
     45 H9         49.3072   19.0581   -7.9783 H           1 MOL       0.0803
     46 H10        49.5692   18.1222   -5.8757 H           1 MOL       0.0465
     47 H11        50.2207   19.7205   -5.6796 H           1 MOL       0.0465
     48 H12        50.9512   16.1520   -5.6502 H           1 MOL       0.0557
     49 H13        52.7288   19.9764   -5.3620 H           1 MOL       0.0557
     50 H14        52.9129   15.1744   -4.6458 H           1 MOL       0.0599
     51 H15        54.7096   18.9711   -4.4226 H           1 MOL       0.0599
     52 H16        54.7951   16.5758   -4.0359 H           1 MOL       0.0559
     53 H17        52.1080   20.4045  -10.1159 H           1 MOL       0.1669
     54 H18        50.1480   19.1401  -10.9166 H           1 MOL       0.0753
     55 H19        48.7418   21.8382  -10.7514 H           1 MOL       0.0311
     56 H20        48.6349   20.7293   -9.4085 H           1 MOL       0.0311
     57 H21        47.9104   18.9725  -11.3542 H           1 MOL       0.0298
     58 H22        45.5619   19.3253  -10.6712 H           1 MOL       0.0232
     59 H23        45.9840   20.9045   -9.9682 H           1 MOL       0.0232
     60 H24        46.6410   19.4055   -9.2737 H           1 MOL       0.0232
     61 H25        47.9488   20.5824  -13.2485 H           1 MOL       0.0232
     62 H26        46.8251   21.6529  -12.3838 H           1 MOL       0.0232
     63 H27        46.3032   20.0455  -12.9336 H           1 MOL       0.0232
     64 H28        50.8892   22.6105  -11.2394 H           1 MOL       0.1875
     65 H29        51.8833   23.8064  -12.7924 H           1 MOL       0.0723
     66 H30        52.8153   22.9243  -14.8617 H           1 MOL       0.0270
     67 H31        52.0686   21.3437  -14.5878 H           1 MOL       0.0270
     68 H32        53.3284   21.9275  -13.4866 H           1 MOL       0.0270
@<TRIPOS>BOND
     1    23    24   1
     2    24    27   1
     3    24    25   1
     4    25    26   2
     5    27    28   1
     6    28    29   1
     7    28    30   1
     8    31    32   1
     9    32    35   1
    10    32    33   1
    11    33    34  ar
    12    33    36  ar
    13    25    31  am
    14     1     2   2
    15     1     3   1
    16    11     1  am
    17     3     4   1
    18     4     5   1
    19     5     6  ar
    20     5     7  ar
    21     6     8  ar
    22     7     9  ar
    23     8    10  ar
    24     9    10  ar
    25    12    11   1
    26    13    12   1
    27    12    16   1
    28    13    14  ar
    29    13    15  ar
    30    13    23  am
    31    16    17   1
    32    17    18  ar
    33    17    19  ar
    34    18    20  ar
    35    19    21  ar
    36    20    22  ar
    37    21    22  ar
    38     4    37   1
    39     4    38   1
    40     6    39   1
    41     7    40   1
    42     8    41   1
    43     9    42   1
    44    10    43   1
    45    11    44   1
    46    12    45   1
    47    16    46   1
    48    16    47   1
    49    18    48   1
    50    19    49   1
    51    20    50   1
    52    21    51   1
    53    22    52   1
    54    23    53   1
    55    24    54   1
    56    27    55   1
    57    27    56   1
    58    28    57   1
    59    29    58   1
    60    29    59   1
    61    29    60   1
    62    30    61   1
    63    30    62   1
    64    30    63   1
    65    31    64   1
    66    32    65   1
    67    35    66   1
    68    35    67   1
    69    35    68   1
@<TRIPOS>SUBSTRUCTURE
     1  MOL      1

