@<TRIPOS>MOLECULE
4tmn_ligand_006
    68    69
SMALL
GAST_HUCK
****
This file was generated by PARSER (from files_GN.cpp)

@<TRIPOS>ATOM
      1 C          53.6083   16.2240   -3.9423 C.2         1 MOL       0.3232
      2 O          54.7967   16.8772   -3.8375 O.2         1 MOL      -0.3774
      3 OA         53.5224   14.8733   -3.9327 O.3         1 MOL      -0.2506
      4 CB         54.5820   13.9268   -3.7536 C.3         1 MOL       0.1113
      5 CG         54.0642   12.5856   -4.1022 C.ar        1 MOL      -0.0130
      6 CD1        53.7112   11.6582   -3.0985 C.ar        1 MOL      -0.0578
      7 CD2        53.8880   12.2341   -5.4614 C.ar        1 MOL      -0.0578
      8 CE1        53.2008   10.3921   -3.4459 C.ar        1 MOL      -0.0685
      9 CE2        53.3879   10.9630   -5.8078 C.ar        1 MOL      -0.0685
     10 CZ         53.0437   10.0464   -4.7988 C.ar        1 MOL      -0.0687
     11 N          52.4460   16.9021   -4.0421 N.am        1 MOL      -0.2403
     12 CA         52.2347   18.3091   -4.2247 C.3         1 MOL       0.1331
     13 P          52.1341   18.6948   -5.8584 P.3         1 MOL       0.0925
     14 OP1        53.3307   19.3376   -6.3365 O.co2       1 MOL      -0.6054
     15 OP2        51.9758   17.5113   -6.6662 O.co2       1 MOL      -0.6054
     16 CB         53.1774   19.2472   -3.4031 C.3         1 MOL       0.0219
     17 CG         52.9994   19.1439   -1.9276 C.ar        1 MOL      -0.0392
     18 CD1        51.7415   19.4032   -1.3241 C.ar        1 MOL      -0.0602
     19 CD2        54.0925   18.8219   -1.0896 C.ar        1 MOL      -0.0602
     20 CE1        51.5868   19.3203    0.0717 C.ar        1 MOL      -0.0686
     21 CE2        53.9359   18.7295    0.3030 C.ar        1 MOL      -0.0686
     22 CZ         52.6804   18.9737    0.8862 C.ar        1 MOL      -0.0687
     23 N          51.0218   19.7018   -6.1250 N.am        1 MOL      -0.2733
     24 CA         50.2332   19.8205   -7.2889 C.3         1 MOL       0.1230
     25 C          49.4594   18.6073   -7.5677 C.2         1 MOL       0.1994
     26 O          49.4411   18.1206   -8.6987 O.2         1 MOL      -0.3949
     27 CB         51.0530   20.4054   -8.4883 C.3         1 MOL      -0.0136
     28 CG         50.1968   20.9883   -9.6776 C.3         1 MOL      -0.0429
     29 CD1        50.4933   22.4954   -9.9405 C.3         1 MOL      -0.0625
     30 CD2        50.3711   20.1765  -10.9952 C.3         1 MOL      -0.0625
     31 N          48.8763   17.9800   -6.5557 N.am        1 MOL      -0.2701
     32 CA         48.3099   16.6610   -6.5694 C.3         1 MOL       0.0916
     33 C          47.8548   16.2417   -7.9159 C.2         1 MOL       0.0598
     34 O          48.3824   15.1464   -8.5104 O.co2       1 MOL      -0.5666
     35 CB         47.1335   16.5769   -5.5673 C.3         1 MOL      -0.0300
     36 OXT        46.9648   16.9917   -8.6175 O.co2       1 MOL      -0.5666
     37 H1         54.9176   13.9744   -2.7146 H           1 MOL       0.0776
     38 H2         55.4339   14.1773   -4.3913 H           1 MOL       0.0776
     39 H3         53.8131   11.8963   -2.1104 H           1 MOL       0.0557
     40 H4         54.1266   12.8914   -6.2039 H           1 MOL       0.0557
     41 H5         52.9380    9.7300   -2.7147 H           1 MOL       0.0599
     42 H6         53.2693   10.7140   -6.7900 H           1 MOL       0.0599
     43 H7         52.6695    9.1256   -5.0524 H           1 MOL       0.0559
     44 H8         51.6413   16.3573   -4.0422 H           1 MOL       0.1888
     45 H9         51.2283   18.4723   -3.8335 H           1 MOL       0.0803
     46 H10        53.0029   20.2875   -3.6915 H           1 MOL       0.0465
     47 H11        54.2193   19.0150   -3.6682 H           1 MOL       0.0465
     48 H12        50.9318   19.6553   -1.8989 H           1 MOL       0.0557
     49 H13        55.0190   18.6450   -1.4860 H           1 MOL       0.0557
     50 H14        50.6807   19.5216    0.4973 H           1 MOL       0.0599
     51 H15        54.7364   18.4900    0.8922 H           1 MOL       0.0599
     52 H16        52.5680   18.9174    1.9033 H           1 MOL       0.0559
     53 H17        51.0459   20.4706   -5.5889 H           1 MOL       0.1669
     54 H18        49.4991   20.5922   -7.0516 H           1 MOL       0.0753
     55 H19        51.7438   19.6358   -8.8594 H           1 MOL       0.0311
     56 H20        51.6902   21.2004   -8.0888 H           1 MOL       0.0311
     57 H21        49.1342   20.9305   -9.4168 H           1 MOL       0.0298
     58 H22        49.8255   22.8919  -10.7130 H           1 MOL       0.0232
     59 H23        51.5264   22.6300  -10.2679 H           1 MOL       0.0232
     60 H24        50.3362   23.0764   -9.0284 H           1 MOL       0.0232
     61 H25        50.0911   19.1335  -10.8369 H           1 MOL       0.0232
     62 H26        51.4085   20.2128  -11.3337 H           1 MOL       0.0232
     63 H27        49.7307   20.5820  -11.7835 H           1 MOL       0.0232
     64 H28        48.9583   18.4047   -5.6817 H           1 MOL       0.1875
     65 H29        49.0842   15.9706   -6.2266 H           1 MOL       0.0723
     66 H30        46.8532   15.5313   -5.4028 H           1 MOL       0.0270
     67 H31        46.2597   17.1201   -5.9314 H           1 MOL       0.0270
     68 H32        47.4228   17.0097   -4.6045 H           1 MOL       0.0270
@<TRIPOS>BOND
     1    23    24   1
     2    24    27   1
     3    24    25   1
     4    25    26   2
     5    27    28   1
     6    28    29   1
     7    28    30   1
     8    31    32   1
     9    32    35   1
    10    32    33   1
    11    33    34  ar
    12    33    36  ar
    13    25    31  am
    14     1     2   2
    15     1     3   1
    16    11     1  am
    17     3     4   1
    18     4     5   1
    19     5     6  ar
    20     5     7  ar
    21     6     8  ar
    22     7     9  ar
    23     8    10  ar
    24     9    10  ar
    25    12    11   1
    26    13    12   1
    27    12    16   1
    28    13    14  ar
    29    13    15  ar
    30    13    23  am
    31    16    17   1
    32    17    18  ar
    33    17    19  ar
    34    18    20  ar
    35    19    21  ar
    36    20    22  ar
    37    21    22  ar
    38     4    37   1
    39     4    38   1
    40     6    39   1
    41     7    40   1
    42     8    41   1
    43     9    42   1
    44    10    43   1
    45    11    44   1
    46    12    45   1
    47    16    46   1
    48    16    47   1
    49    18    48   1
    50    19    49   1
    51    20    50   1
    52    21    51   1
    53    22    52   1
    54    23    53   1
    55    24    54   1
    56    27    55   1
    57    27    56   1
    58    28    57   1
    59    29    58   1
    60    29    59   1
    61    29    60   1
    62    30    61   1
    63    30    62   1
    64    30    63   1
    65    31    64   1
    66    32    65   1
    67    35    66   1
    68    35    67   1
    69    35    68   1
@<TRIPOS>SUBSTRUCTURE
     1  MOL      1

