@<TRIPOS>MOLECULE
4tmn_ligand_067
    68    69
SMALL
GAST_HUCK
****
This file was generated by PARSER (from files_GN.cpp)

@<TRIPOS>ATOM
      1 C          51.4579   14.8791   -6.2044 C.2         1 MOL       0.3232
      2 O          50.3246   15.2273   -6.8576 O.2         1 MOL      -0.3774
      3 OA         51.8569   13.5831   -6.1980 O.3         1 MOL      -0.2506
      4 CB         51.1930   12.4977   -6.8712 C.3         1 MOL       0.1113
      5 CG         49.8671   12.1684   -6.2877 C.ar        1 MOL      -0.0130
      6 CD1        48.6724   12.5504   -6.9438 C.ar        1 MOL      -0.0578
      7 CD2        49.7699   11.4474   -5.0730 C.ar        1 MOL      -0.0578
      8 CE1        47.4156   12.2212   -6.4013 C.ar        1 MOL      -0.0685
      9 CE2        48.5134   11.1052   -4.5386 C.ar        1 MOL      -0.0685
     10 CZ         47.3349   11.4942   -5.2003 C.ar        1 MOL      -0.0687
     11 N          52.2110   15.8211   -5.5816 N.am        1 MOL      -0.2403
     12 CA         51.9157   17.2276   -5.4809 C.3         1 MOL       0.1331
     13 P          51.8938   18.0219   -6.9727 P.3         1 MOL       0.0925
     14 OP1        52.8447   19.1037   -7.0416 O.co2       1 MOL      -0.6054
     15 OP2        52.2405   17.1352   -8.0554 O.co2       1 MOL      -0.6054
     16 CB         52.9032   17.8674   -4.4440 C.3         1 MOL       0.0219
     17 CG         52.5654   17.5365   -3.0293 C.ar        1 MOL      -0.0392
     18 CD1        53.2089   16.4801   -2.3418 C.ar        1 MOL      -0.0602
     19 CD2        51.5826   18.2912   -2.3431 C.ar        1 MOL      -0.0602
     20 CE1        52.8627   16.1747   -1.0116 C.ar        1 MOL      -0.0686
     21 CE2        51.2452   17.9937   -1.0101 C.ar        1 MOL      -0.0686
     22 CZ         51.8806   16.9295   -0.3463 C.ar        1 MOL      -0.0687
     23 N          50.5426   18.6799   -7.2197 N.am        1 MOL      -0.2733
     24 CA         49.5093   18.2261   -8.0641 C.3         1 MOL       0.1230
     25 C          49.1791   19.3418   -8.9490 C.2         1 MOL       0.1994
     26 O          48.0675   19.8576   -8.9312 O.2         1 MOL      -0.3949
     27 CB         48.3222   17.6437   -7.2082 C.3         1 MOL      -0.0136
     28 CG         47.4353   16.5456   -7.8931 C.3         1 MOL      -0.0429
     29 CD1        46.4819   15.8776   -6.8625 C.3         1 MOL      -0.0625
     30 CD2        46.6183   17.0643   -9.1089 C.3         1 MOL      -0.0625
     31 N          50.1260   19.8270   -9.7488 N.am        1 MOL      -0.2701
     32 CA         50.0076   20.9139  -10.6754 C.3         1 MOL       0.0916
     33 C          50.5652   20.4662  -11.9694 C.2         1 MOL       0.0598
     34 O          51.6010   21.0880  -12.5710 O.co2       1 MOL      -0.5666
     35 CB         50.7011   22.1623  -10.0687 C.3         1 MOL      -0.0300
     36 OXT        49.9877   19.4289  -12.6229 O.co2       1 MOL      -0.5666
     37 H1         51.8278   11.6127   -6.8209 H           1 MOL       0.0776
     38 H2         51.1072   12.7582   -7.9291 H           1 MOL       0.0776
     39 H3         48.7073   13.0731   -7.8212 H           1 MOL       0.0557
     40 H4         50.6151   11.1464   -4.5814 H           1 MOL       0.0557
     41 H5         46.5608   12.5104   -6.8802 H           1 MOL       0.0599
     42 H6         48.4543   10.5742   -3.6661 H           1 MOL       0.0599
     43 H7         46.4216   11.2550   -4.8070 H           1 MOL       0.0559
     44 H8         53.0089   15.4979   -5.1300 H           1 MOL       0.1888
     45 H9         50.9093   17.3214   -5.0636 H           1 MOL       0.0803
     46 H10        52.9037   18.9589   -4.5265 H           1 MOL       0.0465
     47 H11        53.9272   17.5503   -4.6728 H           1 MOL       0.0465
     48 H12        53.9288   15.9238   -2.8054 H           1 MOL       0.0557
     49 H13        51.1080   19.0671   -2.8089 H           1 MOL       0.0557
     50 H14        53.3254   15.4057   -0.5243 H           1 MOL       0.0599
     51 H15        50.5409   18.5517   -0.5241 H           1 MOL       0.0599
     52 H16        51.6352   16.7082    0.6233 H           1 MOL       0.0559
     53 H17        50.3353   19.4052   -6.6602 H           1 MOL       0.1669
     54 H18        49.8541   17.4161   -8.7173 H           1 MOL       0.0753
     55 H19        47.6804   18.4518   -6.8566 H           1 MOL       0.0311
     56 H20        48.7441   17.1975   -6.3038 H           1 MOL       0.0311
     57 H21        48.0988   15.7559   -8.2624 H           1 MOL       0.0298
     58 H22        45.8885   15.0923   -7.3371 H           1 MOL       0.0232
     59 H23        45.7981   16.6176   -6.4416 H           1 MOL       0.0232
     60 H24        47.0518   15.4225   -6.0489 H           1 MOL       0.0232
     61 H25        47.2806   17.3832   -9.9140 H           1 MOL       0.0232
     62 H26        45.9788   17.9023   -8.8178 H           1 MOL       0.0232
     63 H27        45.9852   16.2678   -9.5058 H           1 MOL       0.0232
     64 H28        51.0040   19.4164   -9.6749 H           1 MOL       0.1875
     65 H29        48.9610   21.1806  -10.8565 H           1 MOL       0.0723
     66 H30        50.6084   23.0188  -10.7408 H           1 MOL       0.0270
     67 H31        51.7616   21.9741   -9.8811 H           1 MOL       0.0270
     68 H32        50.2187   22.4187   -9.1249 H           1 MOL       0.0270
@<TRIPOS>BOND
     1    23    24   1
     2    24    27   1
     3    24    25   1
     4    25    26   2
     5    27    28   1
     6    28    29   1
     7    28    30   1
     8    31    32   1
     9    32    35   1
    10    32    33   1
    11    33    34  ar
    12    33    36  ar
    13    25    31  am
    14     1     2   2
    15     1     3   1
    16    11     1  am
    17     3     4   1
    18     4     5   1
    19     5     6  ar
    20     5     7  ar
    21     6     8  ar
    22     7     9  ar
    23     8    10  ar
    24     9    10  ar
    25    12    11   1
    26    13    12   1
    27    12    16   1
    28    13    14  ar
    29    13    15  ar
    30    13    23  am
    31    16    17   1
    32    17    18  ar
    33    17    19  ar
    34    18    20  ar
    35    19    21  ar
    36    20    22  ar
    37    21    22  ar
    38     4    37   1
    39     4    38   1
    40     6    39   1
    41     7    40   1
    42     8    41   1
    43     9    42   1
    44    10    43   1
    45    11    44   1
    46    12    45   1
    47    16    46   1
    48    16    47   1
    49    18    48   1
    50    19    49   1
    51    20    50   1
    52    21    51   1
    53    22    52   1
    54    23    53   1
    55    24    54   1
    56    27    55   1
    57    27    56   1
    58    28    57   1
    59    29    58   1
    60    29    59   1
    61    29    60   1
    62    30    61   1
    63    30    62   1
    64    30    63   1
    65    31    64   1
    66    32    65   1
    67    35    66   1
    68    35    67   1
    69    35    68   1
@<TRIPOS>SUBSTRUCTURE
     1  MOL      1

