@<TRIPOS>MOLECULE
4tmn_ligand_019
    68    69
SMALL
GAST_HUCK
****
This file was generated by PARSER (from files_GN.cpp)

@<TRIPOS>ATOM
      1 C          51.9663   13.6155   -6.4442 C.2         1 MOL       0.3232
      2 O          50.6698   13.3852   -6.1273 O.2         1 MOL      -0.3774
      3 OA         52.4639   13.2098   -7.6403 O.3         1 MOL      -0.2506
      4 CB         51.7629   12.5646   -8.7171 C.3         1 MOL       0.1113
      5 CG         52.1212   11.1344   -8.9132 C.ar        1 MOL      -0.0130
      6 CD1        53.1341   10.4819   -8.1699 C.ar        1 MOL      -0.0578
      7 CD2        51.4073   10.3822   -9.8766 C.ar        1 MOL      -0.0578
      8 CE1        53.4219    9.1195   -8.3783 C.ar        1 MOL      -0.0685
      9 CE2        51.6861    9.0172  -10.0797 C.ar        1 MOL      -0.0685
     10 CZ         52.6952    8.3860   -9.3332 C.ar        1 MOL      -0.0687
     11 N          52.8401   14.1496   -5.5645 N.am        1 MOL      -0.2403
     12 CA         52.5823   14.3992   -4.1753 C.3         1 MOL       0.1331
     13 P          53.1375   15.9080   -3.7195 P.3         1 MOL       0.0925
     14 OP1        52.5748   16.2122   -2.4244 O.co2       1 MOL      -0.6054
     15 OP2        54.5706   15.8739   -3.5528 O.co2       1 MOL      -0.6054
     16 CB         53.0990   13.2180   -3.2854 C.3         1 MOL       0.0219
     17 CG         54.5429   12.8536   -3.4246 C.ar        1 MOL      -0.0392
     18 CD1        55.4489   13.0252   -2.3510 C.ar        1 MOL      -0.0602
     19 CD2        55.0347   12.3003   -4.6292 C.ar        1 MOL      -0.0602
     20 CE1        56.8091   12.6883   -2.4897 C.ar        1 MOL      -0.0686
     21 CE2        56.3984   11.9901   -4.7841 C.ar        1 MOL      -0.0686
     22 CZ         57.2867   12.1852   -3.7126 C.ar        1 MOL      -0.0687
     23 N          52.9062   16.9898   -4.7585 N.am        1 MOL      -0.2733
     24 CA         52.3416   18.2705   -4.6079 C.3         1 MOL       0.1230
     25 C          52.1219   18.7687   -5.9744 C.2         1 MOL       0.1994
     26 O          52.8515   19.6431   -6.4319 O.2         1 MOL      -0.3949
     27 CB         53.1979   19.2739   -3.7403 C.3         1 MOL      -0.0136
     28 CG         53.1367   19.2237   -2.1733 C.3         1 MOL      -0.0429
     29 CD1        53.8113   20.4925   -1.5682 C.3         1 MOL      -0.0625
     30 CD2        51.7060   19.0737   -1.5754 C.3         1 MOL      -0.0625
     31 N          51.1728   18.2383   -6.7390 N.am        1 MOL      -0.2701
     32 CA         50.8516   18.5838   -8.0991 C.3         1 MOL       0.0916
     33 C          49.5921   19.3553   -8.1153 C.2         1 MOL       0.0598
     34 O          48.4007   18.7196   -8.0266 O.co2       1 MOL      -0.5666
     35 CB         50.7700   17.2951   -8.9535 C.3         1 MOL      -0.0300
     36 OXT        49.6115   20.6669   -7.7858 O.co2       1 MOL      -0.5666
     37 H1         51.9946   13.1150   -9.6307 H           1 MOL       0.0776
     38 H2         50.6832   12.6290   -8.5573 H           1 MOL       0.0776
     39 H3         53.6790   10.9905   -7.4733 H           1 MOL       0.0557
     40 H4         50.6685   10.8212  -10.4311 H           1 MOL       0.0557
     41 H5         54.1562    8.6604   -7.8335 H           1 MOL       0.0599
     42 H6         51.1540    8.4844  -10.7721 H           1 MOL       0.0599
     43 H7         52.9002    7.3952   -9.4827 H           1 MOL       0.0559
     44 H8         53.7608   14.2341   -5.8619 H           1 MOL       0.1888
     45 H9         51.5032   14.4519   -4.0133 H           1 MOL       0.0803
     46 H10        52.5105   12.3284   -3.5211 H           1 MOL       0.0465
     47 H11        52.8714   13.4504   -2.2397 H           1 MOL       0.0465
     48 H12        55.1231   13.4056   -1.4614 H           1 MOL       0.0557
     49 H13        54.3991   12.1149   -5.4054 H           1 MOL       0.0557
     50 H14        57.4518   12.8127   -1.7046 H           1 MOL       0.0599
     51 H15        56.7405   11.6146   -5.6710 H           1 MOL       0.0599
     52 H16        58.2760   11.9526   -3.8200 H           1 MOL       0.0559
     53 H17        53.2724   16.8048   -5.6000 H           1 MOL       0.1669
     54 H18        51.3537   18.1864   -4.1444 H           1 MOL       0.0753
     55 H19        52.9055   20.2918   -4.0222 H           1 MOL       0.0311
     56 H20        54.2479   19.1577   -4.0362 H           1 MOL       0.0311
     57 H21        53.7290   18.3697   -1.8354 H           1 MOL       0.0298
     58 H22        53.8636   20.4182   -0.4772 H           1 MOL       0.0232
     59 H23        53.2415   21.3907   -1.8241 H           1 MOL       0.0232
     60 H24        54.8294   20.6056   -1.9522 H           1 MOL       0.0232
     61 H25        51.2940   18.0915   -1.8136 H           1 MOL       0.0232
     62 H26        51.0342   19.8413   -1.9683 H           1 MOL       0.0232
     63 H27        51.7362   19.1606   -0.4835 H           1 MOL       0.0232
     64 H28        50.6296   17.5434   -6.3329 H           1 MOL       0.1875
     65 H29        51.6218   19.2155   -8.5537 H           1 MOL       0.0723
     66 H30        50.5069   17.5378   -9.9848 H           1 MOL       0.0270
     67 H31        50.0227   16.6066   -8.5542 H           1 MOL       0.0270
     68 H32        51.7364   16.7869   -8.9555 H           1 MOL       0.0270
@<TRIPOS>BOND
     1    23    24   1
     2    24    27   1
     3    24    25   1
     4    25    26   2
     5    27    28   1
     6    28    29   1
     7    28    30   1
     8    31    32   1
     9    32    35   1
    10    32    33   1
    11    33    34  ar
    12    33    36  ar
    13    25    31  am
    14     1     2   2
    15     1     3   1
    16    11     1  am
    17     3     4   1
    18     4     5   1
    19     5     6  ar
    20     5     7  ar
    21     6     8  ar
    22     7     9  ar
    23     8    10  ar
    24     9    10  ar
    25    12    11   1
    26    13    12   1
    27    12    16   1
    28    13    14  ar
    29    13    15  ar
    30    13    23  am
    31    16    17   1
    32    17    18  ar
    33    17    19  ar
    34    18    20  ar
    35    19    21  ar
    36    20    22  ar
    37    21    22  ar
    38     4    37   1
    39     4    38   1
    40     6    39   1
    41     7    40   1
    42     8    41   1
    43     9    42   1
    44    10    43   1
    45    11    44   1
    46    12    45   1
    47    16    46   1
    48    16    47   1
    49    18    48   1
    50    19    49   1
    51    20    50   1
    52    21    51   1
    53    22    52   1
    54    23    53   1
    55    24    54   1
    56    27    55   1
    57    27    56   1
    58    28    57   1
    59    29    58   1
    60    29    59   1
    61    29    60   1
    62    30    61   1
    63    30    62   1
    64    30    63   1
    65    31    64   1
    66    32    65   1
    67    35    66   1
    68    35    67   1
    69    35    68   1
@<TRIPOS>SUBSTRUCTURE
     1  MOL      1

