@<TRIPOS>MOLECULE
4tmn_ligand_066
    68    69
SMALL
GAST_HUCK
****
This file was generated by PARSER (from files_GN.cpp)

@<TRIPOS>ATOM
      1 C          47.8301   14.0126  -14.6274 C.2         1 MOL       0.3232
      2 O          46.4938   14.2560  -14.5959 O.2         1 MOL      -0.3774
      3 OA         48.4027   13.4199  -15.7098 O.3         1 MOL      -0.2506
      4 CB         47.7542   13.0292  -16.9318 C.3         1 MOL       0.1113
      5 CG         48.5423   13.3453  -18.1497 C.ar        1 MOL      -0.0130
      6 CD1        49.4911   14.3958  -18.1832 C.ar        1 MOL      -0.0578
      7 CD2        48.3061   12.6021  -19.3294 C.ar        1 MOL      -0.0578
      8 CE1        50.1876   14.6890  -19.3684 C.ar        1 MOL      -0.0685
      9 CE2        49.0128   12.8873  -20.5095 C.ar        1 MOL      -0.0685
     10 CZ         49.9494   13.9336  -20.5329 C.ar        1 MOL      -0.0687
     11 N          48.6220   14.2922  -13.5656 N.am        1 MOL      -0.2403
     12 CA         48.1546   14.8333  -12.3145 C.3         1 MOL       0.1331
     13 P          49.4320   15.5339  -11.4885 P.3         1 MOL       0.0925
     14 OP1        50.0979   16.4085  -12.4204 O.co2       1 MOL      -0.6054
     15 OP2        48.9025   16.4567  -10.5175 O.co2       1 MOL      -0.6054
     16 CB         47.3032   13.8206  -11.4579 C.3         1 MOL       0.0219
     17 CG         47.3462   12.3811  -11.8490 C.ar        1 MOL      -0.0392
     18 CD1        46.1532   11.6637  -12.1398 C.ar        1 MOL      -0.0602
     19 CD2        48.5847   11.6923  -11.9568 C.ar        1 MOL      -0.0602
     20 CE1        46.1968   10.3174  -12.5112 C.ar        1 MOL      -0.0686
     21 CE2        48.6272   10.3396  -12.3125 C.ar        1 MOL      -0.0686
     22 CZ         47.4323    9.6426  -12.6034 C.ar        1 MOL      -0.0687
     23 N          50.5062   14.6081  -10.9451 N.am        1 MOL      -0.2733
     24 CA         50.5234   13.9371   -9.7012 C.3         1 MOL       0.1230
     25 C          50.4376   14.8234   -8.5343 C.2         1 MOL       0.1994
     26 O          49.6038   14.5689   -7.6740 O.2         1 MOL      -0.3949
     27 CB         51.8227   13.0598   -9.5849 C.3         1 MOL      -0.0136
     28 CG         51.7624   11.7904   -8.6646 C.3         1 MOL      -0.0429
     29 CD1        50.9263   11.9506   -7.3554 C.3         1 MOL      -0.0625
     30 CD2        51.3235   10.5158   -9.4519 C.3         1 MOL      -0.0625
     31 N          51.1802   15.9254   -8.4843 N.am        1 MOL      -0.2701
     32 CA         51.2372   16.9180   -7.4461 C.3         1 MOL       0.0916
     33 C          51.8337   16.3642   -6.2118 C.2         1 MOL       0.0598
     34 O          51.3591   15.2303   -5.6476 O.co2       1 MOL      -0.5666
     35 CB         49.8949   17.6440   -7.1740 C.3         1 MOL      -0.0300
     36 OXT        52.8304   17.0269   -5.5791 O.co2       1 MOL      -0.5666
     37 H1         46.7741   13.5036  -17.0308 H           1 MOL       0.0776
     38 H2         47.6039   11.9475  -16.8621 H           1 MOL       0.0776
     39 H3         49.6670   14.9670  -17.3524 H           1 MOL       0.0557
     40 H4         47.6170   11.8445  -19.3341 H           1 MOL       0.0557
     41 H5         50.8664   15.4533  -19.3864 H           1 MOL       0.0599
     42 H6         48.8353   12.3431  -21.3521 H           1 MOL       0.0599
     43 H7         50.4494   14.1497  -21.3950 H           1 MOL       0.0559
     44 H8         49.5762   14.1245  -13.6732 H           1 MOL       0.1888
     45 H9         47.4982   15.6758  -12.5766 H           1 MOL       0.0803
     46 H10        46.2656   14.1717  -11.4873 H           1 MOL       0.0465
     47 H11        47.5829   13.8624  -10.4037 H           1 MOL       0.0465
     48 H12        45.2468   12.1415  -12.0806 H           1 MOL       0.0557
     49 H13        49.4610   12.1765  -11.7577 H           1 MOL       0.0557
     50 H14        45.3311    9.8186  -12.7246 H           1 MOL       0.0599
     51 H15        49.5208    9.8497  -12.3814 H           1 MOL       0.0599
     52 H16        47.4604    8.6622  -12.8737 H           1 MOL       0.0559
     53 H17        51.0645   14.2654  -11.6102 H           1 MOL       0.1669
     54 H18        49.6793   13.2476   -9.7070 H           1 MOL       0.0753
     55 H19        52.6549   13.6712   -9.2261 H           1 MOL       0.0311
     56 H20        52.1330   12.7213  -10.5793 H           1 MOL       0.0311
     57 H21        52.7905   11.5891   -8.3248 H           1 MOL       0.0298
     58 H22        51.1421   11.1168   -6.6703 H           1 MOL       0.0232
     59 H23        49.8523   11.9445   -7.5883 H           1 MOL       0.0232
     60 H24        51.1896   12.8929   -6.8553 H           1 MOL       0.0232
     61 H25        52.0301   10.3247  -10.2729 H           1 MOL       0.0232
     62 H26        50.3160   10.6345   -9.8733 H           1 MOL       0.0232
     63 H27        51.3266    9.6352   -8.7923 H           1 MOL       0.0232
     64 H28        51.7734   16.0638   -9.2417 H           1 MOL       0.1875
     65 H29        51.9149   17.6782   -7.8275 H           1 MOL       0.0723
     66 H30        50.0634   18.4974   -6.5134 H           1 MOL       0.0270
     67 H31        49.1664   16.9834   -6.6976 H           1 MOL       0.0270
     68 H32        49.4714   18.0165   -8.1102 H           1 MOL       0.0270
@<TRIPOS>BOND
     1    23    24   1
     2    24    27   1
     3    24    25   1
     4    25    26   2
     5    27    28   1
     6    28    29   1
     7    28    30   1
     8    31    32   1
     9    32    35   1
    10    32    33   1
    11    33    34  ar
    12    33    36  ar
    13    25    31  am
    14     1     2   2
    15     1     3   1
    16    11     1  am
    17     3     4   1
    18     4     5   1
    19     5     6  ar
    20     5     7  ar
    21     6     8  ar
    22     7     9  ar
    23     8    10  ar
    24     9    10  ar
    25    12    11   1
    26    13    12   1
    27    12    16   1
    28    13    14  ar
    29    13    15  ar
    30    13    23  am
    31    16    17   1
    32    17    18  ar
    33    17    19  ar
    34    18    20  ar
    35    19    21  ar
    36    20    22  ar
    37    21    22  ar
    38     4    37   1
    39     4    38   1
    40     6    39   1
    41     7    40   1
    42     8    41   1
    43     9    42   1
    44    10    43   1
    45    11    44   1
    46    12    45   1
    47    16    46   1
    48    16    47   1
    49    18    48   1
    50    19    49   1
    51    20    50   1
    52    21    51   1
    53    22    52   1
    54    23    53   1
    55    24    54   1
    56    27    55   1
    57    27    56   1
    58    28    57   1
    59    29    58   1
    60    29    59   1
    61    29    60   1
    62    30    61   1
    63    30    62   1
    64    30    63   1
    65    31    64   1
    66    32    65   1
    67    35    66   1
    68    35    67   1
    69    35    68   1
@<TRIPOS>SUBSTRUCTURE
     1  MOL      1

