@<TRIPOS>MOLECULE
4tmn_ligand_039
    68    69
SMALL
GAST_HUCK
****
This file was generated by PARSER (from files_GN.cpp)

@<TRIPOS>ATOM
      1 C          51.3836   20.3886   -7.5933 C.2         1 MOL       0.3232
      2 O          50.1399   20.5070   -7.0646 O.2         1 MOL      -0.3774
      3 OA         52.4533   20.0095   -6.8436 O.3         1 MOL      -0.2506
      4 CB         52.4407   19.6399   -5.4601 C.3         1 MOL       0.1113
      5 CG         52.4972   18.1670   -5.3200 C.ar        1 MOL      -0.0130
      6 CD1        53.4503   17.5388   -4.4800 C.ar        1 MOL      -0.0578
      7 CD2        51.5723   17.3563   -6.0251 C.ar        1 MOL      -0.0578
      8 CE1        53.4752   16.1383   -4.3538 C.ar        1 MOL      -0.0685
      9 CE2        51.6170   15.9571   -5.9156 C.ar        1 MOL      -0.0685
     10 CZ         52.5690   15.3457   -5.0819 C.ar        1 MOL      -0.0687
     11 N          51.6091   20.6200   -8.9073 N.am        1 MOL      -0.2403
     12 CA         50.6218   21.0046   -9.8842 C.3         1 MOL       0.1331
     13 P          49.5700   19.7146  -10.1493 P.3         1 MOL       0.0925
     14 OP1        50.2365   18.4475   -9.9760 O.co2       1 MOL      -0.6054
     15 OP2        48.5701   19.7245   -9.1067 O.co2       1 MOL      -0.6054
     16 CB         51.3559   21.5042  -11.1774 C.3         1 MOL       0.0219
     17 CG         50.6447   22.4122  -12.1373 C.ar        1 MOL      -0.0392
     18 CD1        49.4038   23.0418  -11.8571 C.ar        1 MOL      -0.0602
     19 CD2        51.2880   22.7131  -13.3658 C.ar        1 MOL      -0.0602
     20 CE1        48.8494   23.9718  -12.7559 C.ar        1 MOL      -0.0686
     21 CE2        50.7337   23.6460  -14.2618 C.ar        1 MOL      -0.0686
     22 CZ         49.5244   24.2964  -13.9468 C.ar        1 MOL      -0.0687
     23 N          48.7740   19.7589  -11.4407 N.am        1 MOL      -0.2733
     24 CA         48.7428   18.7662  -12.4430 C.3         1 MOL       0.1230
     25 C          48.7999   19.3288  -13.7943 C.2         1 MOL       0.1994
     26 O          48.4035   20.4723  -13.9905 O.2         1 MOL      -0.3949
     27 CB         47.5557   17.7597  -12.2402 C.3         1 MOL      -0.0136
     28 CG         46.1424   18.0158  -12.8800 C.3         1 MOL      -0.0429
     29 CD1        45.6417   19.4839  -12.7284 C.3         1 MOL      -0.0625
     30 CD2        46.0243   17.5264  -14.3540 C.3         1 MOL      -0.0625
     31 N          49.3202   18.6018  -14.7847 N.am        1 MOL      -0.2701
     32 CA         49.4979   18.9685  -16.1673 C.3         1 MOL       0.0916
     33 C          50.1145   20.3019  -16.3381 C.2         1 MOL       0.0598
     34 O          49.5480   21.4171  -15.8193 O.co2       1 MOL      -0.5666
     35 CB         48.2003   18.8168  -17.0019 C.3         1 MOL      -0.0300
     36 OXT        51.2005   20.4510  -17.1226 O.co2       1 MOL      -0.5666
     37 H1         51.5478   19.9998   -4.9440 H           1 MOL       0.0776
     38 H2         53.2993   20.1198   -4.9996 H           1 MOL       0.0776
     39 H3         54.1218   18.0987   -3.9494 H           1 MOL       0.0557
     40 H4         50.8649   17.7855   -6.6264 H           1 MOL       0.0557
     41 H5         54.1518   15.6978   -3.7294 H           1 MOL       0.0599
     42 H6         50.9586   15.3821   -6.4417 H           1 MOL       0.0599
     43 H7         52.5978   14.3263   -4.9927 H           1 MOL       0.0559
     44 H8         52.5236   20.5267   -9.2286 H           1 MOL       0.1888
     45 H9         50.0614   21.8517   -9.4751 H           1 MOL       0.0803
     46 H10        51.7367   20.6418  -11.7349 H           1 MOL       0.0465
     47 H11        52.2437   22.0641  -10.8517 H           1 MOL       0.0465
     48 H12        48.8881   22.8428  -11.0010 H           1 MOL       0.0557
     49 H13        52.1836   22.2690  -13.6069 H           1 MOL       0.0557
     50 H14        47.9656   24.4348  -12.5325 H           1 MOL       0.0599
     51 H15        51.2179   23.8693  -15.1345 H           1 MOL       0.0599
     52 H16        49.1298   24.9899  -14.5909 H           1 MOL       0.0559
     53 H17        48.2004   20.4904  -11.5624 H           1 MOL       0.1669
     54 H18        49.6597   18.1676  -12.3473 H           1 MOL       0.0753
     55 H19        47.3917   17.6667  -11.1605 H           1 MOL       0.0311
     56 H20        47.8904   16.7676  -12.5627 H           1 MOL       0.0311
     57 H21        45.4343   17.3976  -12.3085 H           1 MOL       0.0298
     58 H22        44.6033   19.5613  -13.0670 H           1 MOL       0.0232
     59 H23        46.2557   20.1623  -13.3315 H           1 MOL       0.0232
     60 H24        45.6856   19.7996  -11.6773 H           1 MOL       0.0232
     61 H25        46.4025   16.5005  -14.4295 H           1 MOL       0.0232
     62 H26        46.5938   18.1774  -15.0240 H           1 MOL       0.0232
     63 H27        44.9738   17.5325  -14.6700 H           1 MOL       0.0232
     64 H28        49.6095   17.7008  -14.5459 H           1 MOL       0.1875
     65 H29        50.2066   18.2294  -16.5628 H           1 MOL       0.0723
     66 H30        48.4154   18.9842  -18.0655 H           1 MOL       0.0270
     67 H31        47.4367   19.5326  -16.6811 H           1 MOL       0.0270
     68 H32        47.8034   17.8004  -16.8800 H           1 MOL       0.0270
@<TRIPOS>BOND
     1    23    24   1
     2    24    27   1
     3    24    25   1
     4    25    26   2
     5    27    28   1
     6    28    29   1
     7    28    30   1
     8    31    32   1
     9    32    35   1
    10    32    33   1
    11    33    34  ar
    12    33    36  ar
    13    25    31  am
    14     1     2   2
    15     1     3   1
    16    11     1  am
    17     3     4   1
    18     4     5   1
    19     5     6  ar
    20     5     7  ar
    21     6     8  ar
    22     7     9  ar
    23     8    10  ar
    24     9    10  ar
    25    12    11   1
    26    13    12   1
    27    12    16   1
    28    13    14  ar
    29    13    15  ar
    30    13    23  am
    31    16    17   1
    32    17    18  ar
    33    17    19  ar
    34    18    20  ar
    35    19    21  ar
    36    20    22  ar
    37    21    22  ar
    38     4    37   1
    39     4    38   1
    40     6    39   1
    41     7    40   1
    42     8    41   1
    43     9    42   1
    44    10    43   1
    45    11    44   1
    46    12    45   1
    47    16    46   1
    48    16    47   1
    49    18    48   1
    50    19    49   1
    51    20    50   1
    52    21    51   1
    53    22    52   1
    54    23    53   1
    55    24    54   1
    56    27    55   1
    57    27    56   1
    58    28    57   1
    59    29    58   1
    60    29    59   1
    61    29    60   1
    62    30    61   1
    63    30    62   1
    64    30    63   1
    65    31    64   1
    66    32    65   1
    67    35    66   1
    68    35    67   1
    69    35    68   1
@<TRIPOS>SUBSTRUCTURE
     1  MOL      1

