@<TRIPOS>MOLECULE
4tmn_ligand_042
    68    69
SMALL
GAST_HUCK
****
This file was generated by PARSER (from files_GN.cpp)

@<TRIPOS>ATOM
      1 C          51.2185   20.5287   -8.0519 C.2         1 MOL       0.3232
      2 O          49.9685   20.7733   -7.5846 O.2         1 MOL      -0.3774
      3 OA         52.2551   20.2719   -7.2039 O.3         1 MOL      -0.2506
      4 CB         52.1880   20.1554   -5.7746 C.3         1 MOL       0.1113
      5 CG         52.5677   18.7848   -5.3474 C.ar        1 MOL      -0.0130
      6 CD1        53.5332   18.5676   -4.3357 C.ar        1 MOL      -0.0578
      7 CD2        51.9062   17.6609   -5.9069 C.ar        1 MOL      -0.0578
      8 CE1        53.8149   17.2647   -3.8828 C.ar        1 MOL      -0.0685
      9 CE2        52.2078   16.3570   -5.4703 C.ar        1 MOL      -0.0685
     10 CZ         53.1579   16.1577   -4.4526 C.ar        1 MOL      -0.0687
     11 N          51.4492   20.4359   -9.3836 N.am        1 MOL      -0.2403
     12 CA         50.4364   20.4116  -10.4110 C.3         1 MOL       0.1331
     13 P          49.5694   18.9620  -10.4046 P.3         1 MOL       0.0925
     14 OP1        48.2008   19.2551  -10.0630 O.co2       1 MOL      -0.6054
     15 OP2        49.4684   18.3627  -11.7164 O.co2       1 MOL      -0.6054
     16 CB         51.0897   20.7568  -11.7946 C.3         1 MOL       0.0219
     17 CG         51.3355   22.2110  -11.9830 C.ar        1 MOL      -0.0392
     18 CD1        50.2520   23.0679  -12.2959 C.ar        1 MOL      -0.0602
     19 CD2        52.6352   22.7631  -11.8896 C.ar        1 MOL      -0.0602
     20 CE1        50.4607   24.4409  -12.5043 C.ar        1 MOL      -0.0686
     21 CE2        52.8362   24.1435  -12.0646 C.ar        1 MOL      -0.0686
     22 CZ         51.7518   24.9805  -12.3781 C.ar        1 MOL      -0.0687
     23 N          50.1181   17.8950   -9.4699 N.am        1 MOL      -0.2733
     24 CA         49.4084   16.8328   -8.8633 C.3         1 MOL       0.1230
     25 C          48.7471   15.9764   -9.8571 C.2         1 MOL       0.1994
     26 O          47.5431   15.7753   -9.8076 O.2         1 MOL      -0.3949
     27 CB         48.5069   17.3173   -7.6737 C.3         1 MOL      -0.0136
     28 CG         48.1932   16.2681   -6.5480 C.3         1 MOL      -0.0429
     29 CD1        47.1286   16.8381   -5.5680 C.3         1 MOL      -0.0625
     30 CD2        47.7626   14.8686   -7.0635 C.3         1 MOL      -0.0625
     31 N          49.4821   15.4672  -10.8450 N.am        1 MOL      -0.2701
     32 CA         49.0902   14.5912  -11.9142 C.3         1 MOL       0.0916
     33 C          47.6700   14.6820  -12.3364 C.2         1 MOL       0.0598
     34 O          47.2267   15.7922  -12.9705 O.co2       1 MOL      -0.5666
     35 CB         49.5650   13.1569  -11.5767 C.3         1 MOL      -0.0300
     36 OXT        46.7427   13.7850  -11.9273 O.co2       1 MOL      -0.5666
     37 H1         51.1816   20.3565   -5.3985 H           1 MOL       0.0776
     38 H2         52.8529   20.9092   -5.3452 H           1 MOL       0.0776
     39 H3         54.0214   19.3576   -3.9006 H           1 MOL       0.0557
     40 H4         51.2011   17.7915   -6.6353 H           1 MOL       0.0557
     41 H5         54.4868   17.1167   -3.1274 H           1 MOL       0.0599
     42 H6         51.7307   15.5543   -5.8897 H           1 MOL       0.0599
     43 H7         53.3661   15.2105   -4.1251 H           1 MOL       0.0559
     44 H8         52.3695   20.2873   -9.6566 H           1 MOL       0.1888
     45 H9         49.7232   21.2080  -10.1788 H           1 MOL       0.0803
     46 H10        50.4585   20.4518  -12.6332 H           1 MOL       0.0465
     47 H11        52.0176   20.1913  -11.9059 H           1 MOL       0.0465
     48 H12        49.3040   22.6921  -12.3885 H           1 MOL       0.0557
     49 H13        53.4369   22.1637  -11.6836 H           1 MOL       0.0557
     50 H14        49.6739   25.0452  -12.7494 H           1 MOL       0.0599
     51 H15        53.7724   24.5417  -11.9718 H           1 MOL       0.0599
     52 H16        51.9054   25.9781  -12.5222 H           1 MOL       0.0559
     53 H17        51.0505   17.8162   -9.4483 H           1 MOL       0.1669
     54 H18        50.1903   16.2191   -8.4052 H           1 MOL       0.0753
     55 H19        47.5668   17.7172   -8.0627 H           1 MOL       0.0311
     56 H20        49.0166   18.1526   -7.1803 H           1 MOL       0.0311
     57 H21        49.1099   16.1262   -5.9706 H           1 MOL       0.0298
     58 H22        46.9208   16.1239   -4.7685 H           1 MOL       0.0232
     59 H23        46.1955   17.0465   -6.0954 H           1 MOL       0.0232
     60 H24        47.4921   17.7627   -5.1096 H           1 MOL       0.0232
     61 H25        48.5560   14.4119   -7.6525 H           1 MOL       0.0232
     62 H26        46.8603   14.9368   -7.6732 H           1 MOL       0.0232
     63 H27        47.5594   14.2053   -6.2232 H           1 MOL       0.0232
     64 H28        50.4318   15.6662  -10.8071 H           1 MOL       0.1875
     65 H29        49.6640   14.9101  -12.7863 H           1 MOL       0.0723
     66 H30        49.3328   12.4717  -12.3945 H           1 MOL       0.0270
     67 H31        49.0833   12.7977  -10.6648 H           1 MOL       0.0270
     68 H32        50.6452   13.1524  -11.4247 H           1 MOL       0.0270
@<TRIPOS>BOND
     1    23    24   1
     2    24    27   1
     3    24    25   1
     4    25    26   2
     5    27    28   1
     6    28    29   1
     7    28    30   1
     8    31    32   1
     9    32    35   1
    10    32    33   1
    11    33    34  ar
    12    33    36  ar
    13    25    31  am
    14     1     2   2
    15     1     3   1
    16    11     1  am
    17     3     4   1
    18     4     5   1
    19     5     6  ar
    20     5     7  ar
    21     6     8  ar
    22     7     9  ar
    23     8    10  ar
    24     9    10  ar
    25    12    11   1
    26    13    12   1
    27    12    16   1
    28    13    14  ar
    29    13    15  ar
    30    13    23  am
    31    16    17   1
    32    17    18  ar
    33    17    19  ar
    34    18    20  ar
    35    19    21  ar
    36    20    22  ar
    37    21    22  ar
    38     4    37   1
    39     4    38   1
    40     6    39   1
    41     7    40   1
    42     8    41   1
    43     9    42   1
    44    10    43   1
    45    11    44   1
    46    12    45   1
    47    16    46   1
    48    16    47   1
    49    18    48   1
    50    19    49   1
    51    20    50   1
    52    21    51   1
    53    22    52   1
    54    23    53   1
    55    24    54   1
    56    27    55   1
    57    27    56   1
    58    28    57   1
    59    29    58   1
    60    29    59   1
    61    29    60   1
    62    30    61   1
    63    30    62   1
    64    30    63   1
    65    31    64   1
    66    32    65   1
    67    35    66   1
    68    35    67   1
    69    35    68   1
@<TRIPOS>SUBSTRUCTURE
     1  MOL      1

