@<TRIPOS>MOLECULE
4tmn_ligand_035
    68    69
SMALL
GAST_HUCK
****
This file was generated by PARSER (from files_GN.cpp)

@<TRIPOS>ATOM
      1 C          51.4977   16.0986   -7.2770 C.2         1 MOL       0.3232
      2 O          50.8737   15.5716   -6.1976 O.2         1 MOL      -0.3774
      3 OA         51.3131   15.5389   -8.5037 O.3         1 MOL      -0.2506
      4 CB         50.4107   14.4808   -8.8434 C.3         1 MOL       0.1113
      5 CG         50.5369   13.3002   -7.9501 C.ar        1 MOL      -0.0130
      6 CD1        51.6955   12.4887   -7.9929 C.ar        1 MOL      -0.0578
      7 CD2        49.5147   12.9702   -7.0258 C.ar        1 MOL      -0.0578
      8 CE1        51.8254   11.3713   -7.1519 C.ar        1 MOL      -0.0685
      9 CE2        49.6564   11.8653   -6.1614 C.ar        1 MOL      -0.0685
     10 CZ         50.8169   11.0749   -6.2174 C.ar        1 MOL      -0.0687
     11 N          52.2766   17.1986   -7.1767 N.am        1 MOL      -0.2403
     12 CA         52.4853   18.0036   -5.9999 C.3         1 MOL       0.1331
     13 P          53.2826   17.1842   -4.7569 P.3         1 MOL       0.0925
     14 OP1        53.4230   15.7948   -5.1211 O.co2       1 MOL      -0.6054
     15 OP2        54.6488   17.6376   -4.6439 O.co2       1 MOL      -0.6054
     16 CB         51.1792   18.7713   -5.5799 C.3         1 MOL       0.0219
     17 CG         50.3913   19.2946   -6.7324 C.ar        1 MOL      -0.0392
     18 CD1        49.3551   18.5274   -7.3244 C.ar        1 MOL      -0.0602
     19 CD2        50.7219   20.5401   -7.3168 C.ar        1 MOL      -0.0602
     20 CE1        48.6968   18.9738   -8.4879 C.ar        1 MOL      -0.0686
     21 CE2        50.0580   20.9940   -8.4716 C.ar        1 MOL      -0.0686
     22 CZ         49.0484   20.2092   -9.0628 C.ar        1 MOL      -0.0687
     23 N          52.6550   17.1770   -3.3748 N.am        1 MOL      -0.2733
     24 CA         53.2596   16.6614   -2.2111 C.3         1 MOL       0.1230
     25 C          53.4295   15.2172   -2.3443 C.2         1 MOL       0.1994
     26 O          54.5580   14.7621   -2.5244 O.2         1 MOL      -0.3949
     27 CB         52.4713   17.0187   -0.9184 C.3         1 MOL      -0.0136
     28 CG         52.3907   18.5187   -0.4621 C.3         1 MOL      -0.0429
     29 CD1        53.6478   19.3446   -0.8461 C.3         1 MOL      -0.0625
     30 CD2        51.0834   19.2250   -0.9212 C.3         1 MOL      -0.0625
     31 N          52.3678   14.4182   -2.3545 N.am        1 MOL      -0.2701
     32 CA         52.3600   12.9997   -2.5772 C.3         1 MOL       0.0916
     33 C          52.4534   12.6859   -4.0124 C.2         1 MOL       0.0598
     34 O          51.6920   13.3557   -4.9185 O.co2       1 MOL      -0.5666
     35 CB         51.0647   12.3874   -1.9744 C.3         1 MOL      -0.0300
     36 OXT        53.3087   11.7324   -4.4573 O.co2       1 MOL      -0.5666
     37 H1         50.6185   14.1710   -9.8729 H           1 MOL       0.0776
     38 H2         49.3941   14.8854   -8.8269 H           1 MOL       0.0776
     39 H3         52.4544   12.7140   -8.6495 H           1 MOL       0.0557
     40 H4         48.6704   13.5406   -6.9599 H           1 MOL       0.0557
     41 H5         52.6692   10.7917   -7.1953 H           1 MOL       0.0599
     42 H6         48.9165   11.6468   -5.4866 H           1 MOL       0.0599
     43 H7         50.9050   10.2604   -5.6140 H           1 MOL       0.0559
     44 H8         52.6722   17.5273   -8.0108 H           1 MOL       0.1888
     45 H9         53.1827   18.7864   -6.3289 H           1 MOL       0.0803
     46 H10        51.4440   19.6085   -4.9351 H           1 MOL       0.0465
     47 H11        50.5539   18.0987   -4.9791 H           1 MOL       0.0465
     48 H12        49.0874   17.6212   -6.9294 H           1 MOL       0.0557
     49 H13        51.4660   21.1157   -6.9140 H           1 MOL       0.0557
     50 H14        47.9578   18.4106   -8.9092 H           1 MOL       0.0599
     51 H15        50.3178   21.8920   -8.8910 H           1 MOL       0.0599
     52 H16        48.5789   20.5360   -9.9080 H           1 MOL       0.0559
     53 H17        51.7215   17.2056   -3.3622 H           1 MOL       0.1669
     54 H18        54.2530   17.1246   -2.0810 H           1 MOL       0.0753
     55 H19        52.9200   16.4636   -0.0861 H           1 MOL       0.0311
     56 H20        51.4371   16.6487   -1.0088 H           1 MOL       0.0311
     57 H21        52.3460   18.5100    0.6323 H           1 MOL       0.0298
     58 H22        53.6289   20.3217   -0.3306 H           1 MOL       0.0232
     59 H23        53.6949   19.5239   -1.9210 H           1 MOL       0.0232
     60 H24        54.5483   18.8232   -0.5266 H           1 MOL       0.0232
     61 H25        50.2134   18.6646   -0.5679 H           1 MOL       0.0232
     62 H26        51.0325   19.2983   -2.0087 H           1 MOL       0.0232
     63 H27        51.0324   20.2334   -0.5030 H           1 MOL       0.0232
     64 H28        51.5016   14.8424   -2.2002 H           1 MOL       0.1875
     65 H29        53.1960   12.5473   -2.0402 H           1 MOL       0.0723
     66 H30        51.0613   11.2957   -2.1112 H           1 MOL       0.0270
     67 H31        50.1620   12.8049   -2.4491 H           1 MOL       0.0270
     68 H32        51.0205   12.5965   -0.8966 H           1 MOL       0.0270
@<TRIPOS>BOND
     1    23    24   1
     2    24    27   1
     3    24    25   1
     4    25    26   2
     5    27    28   1
     6    28    29   1
     7    28    30   1
     8    31    32   1
     9    32    35   1
    10    32    33   1
    11    33    34  ar
    12    33    36  ar
    13    25    31  am
    14     1     2   2
    15     1     3   1
    16    11     1  am
    17     3     4   1
    18     4     5   1
    19     5     6  ar
    20     5     7  ar
    21     6     8  ar
    22     7     9  ar
    23     8    10  ar
    24     9    10  ar
    25    12    11   1
    26    13    12   1
    27    12    16   1
    28    13    14  ar
    29    13    15  ar
    30    13    23  am
    31    16    17   1
    32    17    18  ar
    33    17    19  ar
    34    18    20  ar
    35    19    21  ar
    36    20    22  ar
    37    21    22  ar
    38     4    37   1
    39     4    38   1
    40     6    39   1
    41     7    40   1
    42     8    41   1
    43     9    42   1
    44    10    43   1
    45    11    44   1
    46    12    45   1
    47    16    46   1
    48    16    47   1
    49    18    48   1
    50    19    49   1
    51    20    50   1
    52    21    51   1
    53    22    52   1
    54    23    53   1
    55    24    54   1
    56    27    55   1
    57    27    56   1
    58    28    57   1
    59    29    58   1
    60    29    59   1
    61    29    60   1
    62    30    61   1
    63    30    62   1
    64    30    63   1
    65    31    64   1
    66    32    65   1
    67    35    66   1
    68    35    67   1
    69    35    68   1
@<TRIPOS>SUBSTRUCTURE
     1  MOL      1

