@<TRIPOS>MOLECULE
10gs_ligand_028
    59    60
SMALL
GAST_HUCK
****
This file was generated by PARSER (from files_GN.cpp)

@<TRIPOS>ATOM
      1 N          14.7359   12.6990   16.6615 N.4         1 MOL       0.2328
      2 CA         15.2590   12.5956   18.0349 C.3         1 MOL       0.0304
      3 C          16.7237   12.4396   17.9989 C.2         1 MOL       0.0846
      4 O          17.2930   11.5103   17.1936 O.co2       1 MOL      -0.5643
      5 CB         14.5911   11.4410   18.8341 C.3         1 MOL       0.0193
      6 CG         13.0815   11.6726   19.1233 C.3         1 MOL       0.0441
      7 CD         12.6671   11.1403   20.4078 C.2         1 MOL       0.1785
      8 OE1        12.8828    9.9617   20.6652 O.2         1 MOL      -0.3969
      9 OXT        17.4760   12.9341   19.0100 O.co2       1 MOL      -0.5643
     10 N          12.1218   11.9621   21.3031 N.am        1 MOL      -0.2648
     11 CA         11.7018   11.7096   22.6517 C.3         1 MOL       0.1400
     12 CB         10.1511   11.7485   22.7974 C.3         1 MOL       0.0361
     13 SG          9.1980   10.8926   21.5069 S.3         1 MOL      -0.1422
     14 CD          8.1586    9.8173   22.5375 C.3         1 MOL       0.0276
     15 CE          8.9779    8.7457   23.1604 C.ar        1 MOL      -0.0332
     16 CZ1         9.4143    7.6398   22.3905 C.ar        1 MOL      -0.0595
     17 CZ2         9.4012    8.8406   24.5070 C.ar        1 MOL      -0.0595
     18 CT1        10.3021    6.6924   22.9323 C.ar        1 MOL      -0.0685
     19 CT2        10.2858    7.8888   25.0518 C.ar        1 MOL      -0.0685
     20 CH         10.7527    6.8275   24.2586 C.ar        1 MOL      -0.0687
     21 C          12.3775   10.5974   23.3276 C.2         1 MOL       0.2059
     22 O          11.8820    9.4797   23.2991 O.2         1 MOL      -0.3942
     23 N          13.5680   10.7814   23.8882 N.am        1 MOL      -0.2587
     24 CA         14.3611    9.8088   24.6033 C.3         1 MOL       0.1278
     25 CB         14.7178   10.3141   25.9684 C.ar        1 MOL      -0.0049
     26 CG1        14.7935    9.4266   27.0726 C.ar        1 MOL      -0.0564
     27 CG2        15.0195   11.6805   26.1995 C.ar        1 MOL      -0.0564
     28 CD1        15.1574    9.8876   28.3518 C.ar        1 MOL      -0.0682
     29 CD2        15.3701   12.1451   27.4794 C.ar        1 MOL      -0.0682
     30 CE         15.4453   11.2463   28.5576 C.ar        1 MOL      -0.0685
     31 C          15.5811    9.4597   23.8422 C.2         1 MOL       0.0723
     32 O          15.5728    9.4364   22.4892 O.co2       1 MOL      -0.5642
     33 OXT        16.6096    8.8370   24.4692 O.co2       1 MOL      -0.5642
     34 H1         13.7186   12.7882   16.6864 H           1 MOL       0.2010
     35 H2         14.9862   11.8641   16.1267 H           1 MOL       0.2010
     36 H3         15.1239   13.5281   16.2014 H           1 MOL       0.2010
     37 H4         15.0230   13.5394   18.5373 H           1 MOL       0.1026
     38 H5         15.1354   11.3404   19.7786 H           1 MOL       0.0363
     39 H6         14.6983   10.5032   18.2841 H           1 MOL       0.0363
     40 H7         12.4843   11.2035   18.3356 H           1 MOL       0.0505
     41 H8         12.8720   12.7478   19.0796 H           1 MOL       0.0505
     42 H9         12.0126   12.8795   20.9960 H           1 MOL       0.1883
     43 H10        12.0329   12.6097   23.1846 H           1 MOL       0.0808
     44 H11         9.8274   12.7907   22.7767 H           1 MOL       0.0426
     45 H12         9.8975   11.3662   23.7853 H           1 MOL       0.0426
     46 H13         7.3941    9.3634   21.9069 H           1 MOL       0.0538
     47 H14         7.6378   10.4245   23.2825 H           1 MOL       0.0538
     48 H15         9.1170    7.5400   21.4165 H           1 MOL       0.0557
     49 H16         9.0906    9.6225   25.0885 H           1 MOL       0.0557
     50 H17        10.6355    5.9155   22.3582 H           1 MOL       0.0599
     51 H18        10.6034    7.9835   26.0198 H           1 MOL       0.0599
     52 H19        11.4166    6.1526   24.6437 H           1 MOL       0.0559
     53 H20        13.9664   11.6609   23.7737 H           1 MOL       0.1901
     54 H21        13.8044    8.8686   24.7105 H           1 MOL       0.0887
     55 H22        14.5966    8.4310   26.9491 H           1 MOL       0.0560
     56 H23        14.9718   12.3509   25.4303 H           1 MOL       0.0560
     57 H24        15.2183    9.2309   29.1318 H           1 MOL       0.0600
     58 H25        15.5723   13.1361   27.6250 H           1 MOL       0.0600
     59 H26        15.7068   11.5779   29.4860 H           1 MOL       0.0560
@<TRIPOS>BOND
     1     2     1   1
     2     2     5   1
     3     2     3   1
     4     3     4  ar
     5     3     9  ar
     6     5     6   1
     7     6     7   1
     8     7     8   2
     9     7    10  am
    10    10    11   1
    11    11    12   1
    12    11    21   1
    13    12    13   1
    14    13    14   1
    15    14    15   1
    16    15    16  ar
    17    15    17  ar
    18    16    18  ar
    19    17    19  ar
    20    18    20  ar
    21    19    20  ar
    22    21    22   2
    23    21    23  am
    24    23    24   1
    25    24    25   1
    26    24    31   1
    27    25    26  ar
    28    25    27  ar
    29    26    28  ar
    30    27    29  ar
    31    28    30  ar
    32    29    30  ar
    33    31    32  ar
    34    31    33  ar
    35     1    34   1
    36     1    35   1
    37     1    36   1
    38     2    37   1
    39     5    38   1
    40     5    39   1
    41     6    40   1
    42     6    41   1
    43    10    42   1
    44    11    43   1
    45    12    44   1
    46    12    45   1
    47    14    46   1
    48    14    47   1
    49    16    48   1
    50    17    49   1
    51    18    50   1
    52    19    51   1
    53    20    52   1
    54    23    53   1
    55    24    54   1
    56    26    55   1
    57    27    56   1
    58    28    57   1
    59    29    58   1
    60    30    59   1
@<TRIPOS>SUBSTRUCTURE
     1  MOL      2

