@<TRIPOS>MOLECULE
10gs_ligand_014
    59    60
SMALL
GAST_HUCK
****
This file was generated by PARSER (from files_GN.cpp)

@<TRIPOS>ATOM
      1 N           7.8894    8.7385   28.6679 N.4         1 MOL       0.2328
      2 CA          8.3787    7.8070   29.7075 C.3         1 MOL       0.0304
      3 C           9.0314    8.5767   30.7965 C.2         1 MOL       0.0846
      4 O          10.3497    8.4624   31.1006 O.co2       1 MOL      -0.5643
      5 CB          9.2230    6.6710   29.0441 C.3         1 MOL       0.0193
      6 CG         10.7496    6.9557   28.8921 C.3         1 MOL       0.0441
      7 CD         11.3443    6.4201   27.6821 C.2         1 MOL       0.1785
      8 OE1        11.7783    5.2747   27.6785 O.2         1 MOL      -0.3969
      9 OXT         8.2553    9.3288   31.6150 O.co2       1 MOL      -0.5643
     10 N          11.3883    7.1980   26.6069 N.am        1 MOL      -0.2648
     11 CA         12.0189    6.9041   25.3456 C.3         1 MOL       0.1400
     12 CB         10.9182    6.8054   24.2362 C.3         1 MOL       0.0361
     13 SG         10.0019    5.2389   24.2118 S.3         1 MOL      -0.1422
     14 CD         11.3774    4.0505   24.1035 C.3         1 MOL       0.0276
     15 CE         11.2134    2.8127   23.2931 C.ar        1 MOL      -0.0332
     16 CZ1        12.3332    1.9514   23.1843 C.ar        1 MOL      -0.0595
     17 CZ2        10.0504    2.4900   22.5546 C.ar        1 MOL      -0.0595
     18 CT1        12.3003    0.8121   22.3617 C.ar        1 MOL      -0.0685
     19 CT2        10.0127    1.3462   21.7314 C.ar        1 MOL      -0.0685
     20 CH         11.1416    0.5184   21.6227 C.ar        1 MOL      -0.0687
     21 C          13.0547    7.9118   25.1177 C.2         1 MOL       0.2059
     22 O          12.9843    8.6466   24.1396 O.2         1 MOL      -0.3942
     23 N          14.0643    7.9860   25.9810 N.am        1 MOL      -0.2587
     24 CA         15.2976    8.7316   25.9488 C.3         1 MOL       0.1278
     25 CB         15.2925    9.7332   27.0623 C.ar        1 MOL      -0.0049
     26 CG1        14.7287   11.0283   26.9165 C.ar        1 MOL      -0.0564
     27 CG2        15.8130    9.3822   28.3355 C.ar        1 MOL      -0.0564
     28 CD1        14.7435   11.9512   27.9760 C.ar        1 MOL      -0.0682
     29 CD2        15.8051   10.2954   29.4045 C.ar        1 MOL      -0.0682
     30 CE         15.2729   11.5852   29.2246 C.ar        1 MOL      -0.0685
     31 C          15.7916    9.2695   24.6493 C.2         1 MOL       0.0723
     32 O          17.0112    8.9075   24.1884 O.co2       1 MOL      -0.5642
     33 OXT        15.0898   10.1239   23.8762 O.co2       1 MOL      -0.5642
     34 H1          7.3316    8.2214   27.9782 H           1 MOL       0.2010
     35 H2          8.6661    9.2009   28.1856 H           1 MOL       0.2010
     36 H3          7.2995    9.4543   29.1053 H           1 MOL       0.2010
     37 H4          7.4906    7.3332   30.1454 H           1 MOL       0.1026
     38 H5          8.7885    6.4624   28.0592 H           1 MOL       0.0363
     39 H6          9.1026    5.7605   29.6385 H           1 MOL       0.0363
     40 H7         11.2815    6.5206   29.7463 H           1 MOL       0.0505
     41 H8         10.9345    8.0400   28.9360 H           1 MOL       0.0505
     42 H9         10.9573    8.0727   26.6625 H           1 MOL       0.1883
     43 H10        12.5475    5.9481   25.3908 H           1 MOL       0.0808
     44 H11        11.3536    6.9374   23.2398 H           1 MOL       0.0426
     45 H12        10.1929    7.6155   24.3722 H           1 MOL       0.0426
     46 H13        11.6072    3.7625   25.1308 H           1 MOL       0.0538
     47 H14        12.2519    4.5599   23.6975 H           1 MOL       0.0538
     48 H15        13.1941    2.1572   23.6984 H           1 MOL       0.0557
     49 H16         9.2229    3.0867   22.5869 H           1 MOL       0.0557
     50 H17        13.1231    0.2118   22.2880 H           1 MOL       0.0599
     51 H18         9.1716    1.1326   21.1903 H           1 MOL       0.0599
     52 H19        11.1248   -0.2999   21.0093 H           1 MOL       0.0559
     53 H20        13.9814    7.4138   26.7710 H           1 MOL       0.1901
     54 H21        16.0365    7.9667   26.2100 H           1 MOL       0.0887
     55 H22        14.3030   11.3163   26.0335 H           1 MOL       0.0560
     56 H23        16.2004    8.4474   28.4931 H           1 MOL       0.0560
     57 H24        14.3546   12.8877   27.8440 H           1 MOL       0.0600
     58 H25        16.1895   10.0216   30.3113 H           1 MOL       0.0600
     59 H26        15.2714   12.2501   29.9990 H           1 MOL       0.0560
@<TRIPOS>BOND
     1     2     1   1
     2     2     5   1
     3     2     3   1
     4     3     4  ar
     5     3     9  ar
     6     5     6   1
     7     6     7   1
     8     7     8   2
     9     7    10  am
    10    10    11   1
    11    11    12   1
    12    11    21   1
    13    12    13   1
    14    13    14   1
    15    14    15   1
    16    15    16  ar
    17    15    17  ar
    18    16    18  ar
    19    17    19  ar
    20    18    20  ar
    21    19    20  ar
    22    21    22   2
    23    21    23  am
    24    23    24   1
    25    24    25   1
    26    24    31   1
    27    25    26  ar
    28    25    27  ar
    29    26    28  ar
    30    27    29  ar
    31    28    30  ar
    32    29    30  ar
    33    31    32  ar
    34    31    33  ar
    35     1    34   1
    36     1    35   1
    37     1    36   1
    38     2    37   1
    39     5    38   1
    40     5    39   1
    41     6    40   1
    42     6    41   1
    43    10    42   1
    44    11    43   1
    45    12    44   1
    46    12    45   1
    47    14    46   1
    48    14    47   1
    49    16    48   1
    50    17    49   1
    51    18    50   1
    52    19    51   1
    53    20    52   1
    54    23    53   1
    55    24    54   1
    56    26    55   1
    57    27    56   1
    58    28    57   1
    59    29    58   1
    60    30    59   1
@<TRIPOS>SUBSTRUCTURE
     1  MOL      2

