@<TRIPOS>MOLECULE
10gs_ligand_005
    59    60
SMALL
GAST_HUCK
****
This file was generated by PARSER (from files_GN.cpp)

@<TRIPOS>ATOM
      1 N          14.7873    8.1644   26.4754 N.4         1 MOL       0.2328
      2 CA         15.8055    9.1277   26.9111 C.3         1 MOL       0.0304
      3 C          15.4631    9.7381   28.2143 C.2         1 MOL       0.0846
      4 O          16.4326   10.3493   28.9389 O.co2       1 MOL      -0.5643
      5 CB         16.1081   10.2126   25.8340 C.3         1 MOL       0.0193
      6 CG         14.9315   10.6512   24.8926 C.3         1 MOL       0.0441
      7 CD         14.9403    9.9607   23.6069 C.2         1 MOL       0.1785
      8 OE1        14.9551    8.7292   23.6220 O.2         1 MOL      -0.3969
      9 OXT        14.2346    9.6103   28.7631 O.co2       1 MOL      -0.5643
     10 N          14.9707   10.6287   22.4575 N.am        1 MOL      -0.2648
     11 CA         15.0806   10.0716   21.1362 C.3         1 MOL       0.1400
     12 CB         13.8009   10.3752   20.2927 C.3         1 MOL       0.0361
     13 SG         12.2680   10.1442   21.2589 S.3         1 MOL      -0.1422
     14 CD         11.2970   11.5896   20.7403 C.3         1 MOL       0.0276
     15 CE         11.2588   12.7341   21.7006 C.ar        1 MOL      -0.0332
     16 CZ1        10.8820   14.0300   21.2591 C.ar        1 MOL      -0.0595
     17 CZ2        11.4569   12.5414   23.0875 C.ar        1 MOL      -0.0595
     18 CT1        10.7203   15.0926   22.1729 C.ar        1 MOL      -0.0685
     19 CT2        11.3354   13.6082   23.9967 C.ar        1 MOL      -0.0685
     20 CH         10.9567   14.8828   23.5421 C.ar        1 MOL      -0.0687
     21 C          16.2950   10.5579   20.4792 C.2         1 MOL       0.2059
     22 O          17.2222    9.7808   20.2767 O.2         1 MOL      -0.3942
     23 N          16.3396   11.7963   19.9893 N.am        1 MOL      -0.2587
     24 CA         17.3517   12.3929   19.1497 C.3         1 MOL       0.1278
     25 CB         17.2586   12.0922   17.6750 C.ar        1 MOL      -0.0049
     26 CG1        18.2648   12.5527   16.7807 C.ar        1 MOL      -0.0564
     27 CG2        16.1327   11.4455   17.0911 C.ar        1 MOL      -0.0564
     28 CD1        18.1724   12.3518   15.3875 C.ar        1 MOL      -0.0682
     29 CD2        16.0327   11.2421   15.6997 C.ar        1 MOL      -0.0682
     30 CE         17.0546   11.6942   14.8474 C.ar        1 MOL      -0.0685
     31 C          18.7205   12.2147   19.6998 C.2         1 MOL       0.0723
     32 O          19.6200   13.2156   19.5430 O.co2       1 MOL      -0.5642
     33 OXT        19.0644   11.1281   20.4380 O.co2       1 MOL      -0.5642
     34 H1         15.1435    7.6153   25.6932 H           1 MOL       0.2010
     35 H2         13.9390    8.6630   26.1847 H           1 MOL       0.2010
     36 H3         14.5501    7.5487   27.2487 H           1 MOL       0.2010
     37 H4         16.7219    8.5553   27.0747 H           1 MOL       0.1026
     38 H5         16.9544    9.8687   25.2213 H           1 MOL       0.0363
     39 H6         16.4766   11.1071   26.3547 H           1 MOL       0.0363
     40 H7         15.0080   11.7313   24.7210 H           1 MOL       0.0505
     41 H8         13.9707   10.4964   25.3928 H           1 MOL       0.0505
     42 H9         14.8751   11.5978   22.5197 H           1 MOL       0.1883
     43 H10        15.1591    8.9722   21.1946 H           1 MOL       0.0808
     44 H11        13.7457    9.6623   19.4566 H           1 MOL       0.0426
     45 H12        13.8395   11.3917   19.8660 H           1 MOL       0.0426
     46 H13        10.2658   11.2469   20.6017 H           1 MOL       0.0538
     47 H14        11.6864   11.8909   19.7631 H           1 MOL       0.0538
     48 H15        10.6920   14.2051   20.2654 H           1 MOL       0.0557
     49 H16        11.6875   11.6195   23.4542 H           1 MOL       0.0557
     50 H17        10.4373   16.0132   21.8421 H           1 MOL       0.0599
     51 H18        11.5048   13.4564   24.9953 H           1 MOL       0.0599
     52 H19        10.8540   15.6608   24.2027 H           1 MOL       0.0559
     53 H20        15.5706   12.3531   20.1798 H           1 MOL       0.1901
     54 H21        17.1348   13.4639   19.2081 H           1 MOL       0.0887
     55 H22        19.0738   13.0695   17.1398 H           1 MOL       0.0560
     56 H23        15.3397   11.1454   17.6616 H           1 MOL       0.0560
     57 H24        18.9039   12.7049   14.7661 H           1 MOL       0.0600
     58 H25        15.1989   10.7867   15.3032 H           1 MOL       0.0600
     59 H26        16.9707   11.5587   13.8350 H           1 MOL       0.0560
@<TRIPOS>BOND
     1     2     1   1
     2     2     5   1
     3     2     3   1
     4     3     4  ar
     5     3     9  ar
     6     5     6   1
     7     6     7   1
     8     7     8   2
     9     7    10  am
    10    10    11   1
    11    11    12   1
    12    11    21   1
    13    12    13   1
    14    13    14   1
    15    14    15   1
    16    15    16  ar
    17    15    17  ar
    18    16    18  ar
    19    17    19  ar
    20    18    20  ar
    21    19    20  ar
    22    21    22   2
    23    21    23  am
    24    23    24   1
    25    24    25   1
    26    24    31   1
    27    25    26  ar
    28    25    27  ar
    29    26    28  ar
    30    27    29  ar
    31    28    30  ar
    32    29    30  ar
    33    31    32  ar
    34    31    33  ar
    35     1    34   1
    36     1    35   1
    37     1    36   1
    38     2    37   1
    39     5    38   1
    40     5    39   1
    41     6    40   1
    42     6    41   1
    43    10    42   1
    44    11    43   1
    45    12    44   1
    46    12    45   1
    47    14    46   1
    48    14    47   1
    49    16    48   1
    50    17    49   1
    51    18    50   1
    52    19    51   1
    53    20    52   1
    54    23    53   1
    55    24    54   1
    56    26    55   1
    57    27    56   1
    58    28    57   1
    59    29    58   1
    60    30    59   1
@<TRIPOS>SUBSTRUCTURE
     1  MOL      2

