@<TRIPOS>MOLECULE
10gs_ligand_003
    59    60
SMALL
GAST_HUCK
****
This file was generated by PARSER (from files_GN.cpp)

@<TRIPOS>ATOM
      1 N          16.1529   10.4233   30.2102 N.4         1 MOL       0.2328
      2 CA         15.9840   11.2368   28.9973 C.3         1 MOL       0.0304
      3 C          14.9822   12.2868   29.2860 C.2         1 MOL       0.0846
      4 O          13.8711   12.4529   28.5339 O.co2       1 MOL      -0.5643
      5 CB         15.6597   10.3041   27.7865 C.3         1 MOL       0.0193
      6 CG         15.9560   10.9713   26.4143 C.3         1 MOL       0.0441
      7 CD         15.8190   10.0948   25.2632 C.2         1 MOL       0.1785
      8 OE1        16.4992    9.0741   25.2331 O.2         1 MOL      -0.3969
      9 OXT        15.2051   13.1655   30.2912 O.co2       1 MOL      -0.5643
     10 N          15.0947   10.4699   24.2162 N.am        1 MOL      -0.2648
     11 CA         14.8686    9.7325   22.9989 C.3         1 MOL       0.1400
     12 CB         13.4122    9.1618   23.0551 C.3         1 MOL       0.0361
     13 SG         12.1045   10.3621   23.4603 S.3         1 MOL      -0.1422
     14 CD         11.5221   10.9570   21.8502 C.3         1 MOL       0.0276
     15 CE         10.6650    9.9534   21.1681 C.ar        1 MOL      -0.0332
     16 CZ1        11.1909    9.0931   20.1758 C.ar        1 MOL      -0.0595
     17 CZ2         9.2951    9.8355   21.5073 C.ar        1 MOL      -0.0595
     18 CT1        10.3831    8.1069   19.5759 C.ar        1 MOL      -0.0685
     19 CT2         8.4760    8.8821   20.8757 C.ar        1 MOL      -0.0685
     20 CH          9.0229    8.0111   19.9164 C.ar        1 MOL      -0.0687
     21 C          15.2161   10.5307   21.8213 C.2         1 MOL       0.2059
     22 O          14.5876   10.3459   20.7892 O.2         1 MOL      -0.3942
     23 N          16.2938   11.3180   21.8289 N.am        1 MOL      -0.2587
     24 CA         16.8463   12.2167   20.8375 C.3         1 MOL       0.1278
     25 CB         16.2273   12.2658   19.4698 C.ar        1 MOL      -0.0049
     26 CG1        15.5981   13.4430   19.0003 C.ar        1 MOL      -0.0564
     27 CG2        16.2563   11.1390   18.6091 C.ar        1 MOL      -0.0564
     28 CD1        14.9509   13.4722   17.7493 C.ar        1 MOL      -0.0682
     29 CD2        15.5796   11.1544   17.3755 C.ar        1 MOL      -0.0682
     30 CE         14.9216   12.3219   16.9473 C.ar        1 MOL      -0.0685
     31 C          18.3056   12.0173   20.7054 C.2         1 MOL       0.0723
     32 O          19.0487   12.9158   20.0197 O.co2       1 MOL      -0.5642
     33 OXT        18.8934   10.8545   21.0541 O.co2       1 MOL      -0.5642
     34 H1         16.9253    9.7621   30.1075 H           1 MOL       0.2010
     35 H2         15.2984    9.8964   30.3889 H           1 MOL       0.2010
     36 H3         16.3460   11.0278   31.0108 H           1 MOL       0.2010
     37 H4         16.9391   11.7367   28.8217 H           1 MOL       0.1026
     38 H5         14.6132    9.9877   27.8295 H           1 MOL       0.0363
     39 H6         16.2750    9.4023   27.8671 H           1 MOL       0.0363
     40 H7         16.9872   11.3246   26.4289 H           1 MOL       0.0505
     41 H8         15.3142   11.8489   26.3010 H           1 MOL       0.0505
     42 H9         14.6462   11.3299   24.2762 H           1 MOL       0.1883
     43 H10        15.5296    8.8601   22.9564 H           1 MOL       0.0808
     44 H11        13.3862    8.4231   23.8607 H           1 MOL       0.0426
     45 H12        13.1658    8.6194   22.1407 H           1 MOL       0.0426
     46 H13        12.3588   11.2638   21.2277 H           1 MOL       0.0538
     47 H14        10.9363   11.8596   22.0330 H           1 MOL       0.0538
     48 H15        12.1723    9.1616   19.8972 H           1 MOL       0.0557
     49 H16         8.8838   10.4509   22.2136 H           1 MOL       0.0557
     50 H17        10.7831    7.4651   18.8879 H           1 MOL       0.0599
     51 H18         7.4842    8.8163   21.1193 H           1 MOL       0.0599
     52 H19         8.4305    7.3116   19.4650 H           1 MOL       0.0559
     53 H20        16.7624   11.3417   22.6800 H           1 MOL       0.1901
     54 H21        16.7419   13.1973   21.3092 H           1 MOL       0.0887
     55 H22        15.6003   14.2955   19.5665 H           1 MOL       0.0560
     56 H23        16.7301   10.2843   18.9072 H           1 MOL       0.0560
     57 H24        14.4892   14.3273   17.4392 H           1 MOL       0.0600
     58 H25        15.5572   10.3164   16.7888 H           1 MOL       0.0600
     59 H26        14.4321   12.3341   16.0494 H           1 MOL       0.0560
@<TRIPOS>BOND
     1     2     1   1
     2     2     5   1
     3     2     3   1
     4     3     4  ar
     5     3     9  ar
     6     5     6   1
     7     6     7   1
     8     7     8   2
     9     7    10  am
    10    10    11   1
    11    11    12   1
    12    11    21   1
    13    12    13   1
    14    13    14   1
    15    14    15   1
    16    15    16  ar
    17    15    17  ar
    18    16    18  ar
    19    17    19  ar
    20    18    20  ar
    21    19    20  ar
    22    21    22   2
    23    21    23  am
    24    23    24   1
    25    24    25   1
    26    24    31   1
    27    25    26  ar
    28    25    27  ar
    29    26    28  ar
    30    27    29  ar
    31    28    30  ar
    32    29    30  ar
    33    31    32  ar
    34    31    33  ar
    35     1    34   1
    36     1    35   1
    37     1    36   1
    38     2    37   1
    39     5    38   1
    40     5    39   1
    41     6    40   1
    42     6    41   1
    43    10    42   1
    44    11    43   1
    45    12    44   1
    46    12    45   1
    47    14    46   1
    48    14    47   1
    49    16    48   1
    50    17    49   1
    51    18    50   1
    52    19    51   1
    53    20    52   1
    54    23    53   1
    55    24    54   1
    56    26    55   1
    57    27    56   1
    58    28    57   1
    59    29    58   1
    60    30    59   1
@<TRIPOS>SUBSTRUCTURE
     1  MOL      2

