@<TRIPOS>MOLECULE
10gs_ligand_036
    59    60
SMALL
GAST_HUCK
****
This file was generated by PARSER (from files_GN.cpp)

@<TRIPOS>ATOM
      1 N           6.5269    8.3031   22.6660 N.4         1 MOL       0.2328
      2 CA          7.9540    8.6229   22.4808 C.3         1 MOL       0.0304
      3 C           8.4564    7.8480   21.3233 C.2         1 MOL       0.0846
      4 O           7.6701    7.6703   20.2365 O.co2       1 MOL      -0.5643
      5 CB          8.6951    8.3512   23.8268 C.3         1 MOL       0.0193
      6 CG         10.1653    8.8682   23.9024 C.3         1 MOL       0.0441
      7 CD         11.0344    7.9476   24.6231 C.2         1 MOL       0.1785
      8 OE1        11.6695    7.1207   23.9789 O.2         1 MOL      -0.3969
      9 OXT         9.7200    7.3659   21.2634 O.co2       1 MOL      -0.5643
     10 N          11.1241    8.0201   25.9521 N.am        1 MOL      -0.2648
     11 CA         11.9439    7.2244   26.8334 C.3         1 MOL       0.1400
     12 CB         11.4689    5.7324   26.8399 C.3         1 MOL       0.0361
     13 SG          9.9987    5.4880   27.8872 S.3         1 MOL      -0.1422
     14 CD          9.4440    3.8928   27.2272 C.3         1 MOL       0.0276
     15 CE          8.7672    4.1230   25.9301 C.ar        1 MOL      -0.0332
     16 CZ1         7.4073    4.5127   25.8974 C.ar        1 MOL      -0.0595
     17 CZ2         9.4926    4.0678   24.7199 C.ar        1 MOL      -0.0595
     18 CT1         6.7898    4.8653   24.6831 C.ar        1 MOL      -0.0685
     19 CT2         8.8785    4.4251   23.5062 C.ar        1 MOL      -0.0685
     20 CH          7.5382    4.8573   23.4927 C.ar        1 MOL      -0.0687
     21 C          13.3593    7.4363   26.5593 C.2         1 MOL       0.2059
     22 O          14.0926    6.4963   26.2780 O.2         1 MOL      -0.3942
     23 N          13.8442    8.6683   26.6275 N.am        1 MOL      -0.2587
     24 CA         15.2087    9.0747   26.4330 C.3         1 MOL       0.1278
     25 CB         15.4440   10.2937   27.2660 C.ar        1 MOL      -0.0049
     26 CG1        15.7871   10.1346   28.6328 C.ar        1 MOL      -0.0564
     27 CG2        15.2492   11.6112   26.7792 C.ar        1 MOL      -0.0564
     28 CD1        15.9559   11.2475   29.4749 C.ar        1 MOL      -0.0682
     29 CD2        15.4129   12.7244   27.6227 C.ar        1 MOL      -0.0682
     30 CE         15.7753   12.5446   28.9688 C.ar        1 MOL      -0.0685
     31 C          15.5351    9.2285   24.9917 C.2         1 MOL       0.0723
     32 O          14.5987    9.6556   24.1095 O.co2       1 MOL      -0.5642
     33 OXT        16.6796    8.7060   24.4915 O.co2       1 MOL      -0.5642
     34 H1          6.1270    8.9115   23.3854 H           1 MOL       0.2010
     35 H2          6.4315    7.3269   22.9583 H           1 MOL       0.2010
     36 H3          6.0212    8.4463   21.7866 H           1 MOL       0.2010
     37 H4          8.0279    9.6862   22.2347 H           1 MOL       0.1026
     38 H5          8.6528    7.2716   24.0055 H           1 MOL       0.0363
     39 H6          8.1333    8.8235   24.6400 H           1 MOL       0.0363
     40 H7         10.1867    9.8403   24.4024 H           1 MOL       0.0505
     41 H8         10.5576    9.0339   22.8957 H           1 MOL       0.0505
     42 H9         10.5987    8.7224   26.3725 H           1 MOL       0.1883
     43 H10        11.7736    7.6023   27.8460 H           1 MOL       0.0808
     44 H11        12.2534    5.0827   27.2587 H           1 MOL       0.0426
     45 H12        11.2590    5.3953   25.8131 H           1 MOL       0.0426
     46 H13         8.7485    3.4448   27.9394 H           1 MOL       0.0538
     47 H14        10.2954    3.2123   27.1372 H           1 MOL       0.0538
     48 H15         6.8581    4.5456   26.7618 H           1 MOL       0.0557
     49 H16        10.4728    3.7886   24.7141 H           1 MOL       0.0557
     50 H17         5.8068    5.1496   24.6744 H           1 MOL       0.0599
     51 H18         9.4102    4.3937   22.6301 H           1 MOL       0.0599
     52 H19         7.0960    5.1420   22.6132 H           1 MOL       0.0559
     53 H20        13.2137    9.3667   26.8776 H           1 MOL       0.1901
     54 H21        15.8590    8.2804   26.8137 H           1 MOL       0.0887
     55 H22        15.9024    9.1988   29.0328 H           1 MOL       0.0560
     56 H23        14.9667   11.7748   25.8129 H           1 MOL       0.0560
     57 H24        16.2025   11.1134   30.4568 H           1 MOL       0.0600
     58 H25        15.2546   13.6667   27.2571 H           1 MOL       0.0600
     59 H26        15.8868   13.3535   29.5831 H           1 MOL       0.0560
@<TRIPOS>BOND
     1     2     1   1
     2     2     5   1
     3     2     3   1
     4     3     4  ar
     5     3     9  ar
     6     5     6   1
     7     6     7   1
     8     7     8   2
     9     7    10  am
    10    10    11   1
    11    11    12   1
    12    11    21   1
    13    12    13   1
    14    13    14   1
    15    14    15   1
    16    15    16  ar
    17    15    17  ar
    18    16    18  ar
    19    17    19  ar
    20    18    20  ar
    21    19    20  ar
    22    21    22   2
    23    21    23  am
    24    23    24   1
    25    24    25   1
    26    24    31   1
    27    25    26  ar
    28    25    27  ar
    29    26    28  ar
    30    27    29  ar
    31    28    30  ar
    32    29    30  ar
    33    31    32  ar
    34    31    33  ar
    35     1    34   1
    36     1    35   1
    37     1    36   1
    38     2    37   1
    39     5    38   1
    40     5    39   1
    41     6    40   1
    42     6    41   1
    43    10    42   1
    44    11    43   1
    45    12    44   1
    46    12    45   1
    47    14    46   1
    48    14    47   1
    49    16    48   1
    50    17    49   1
    51    18    50   1
    52    19    51   1
    53    20    52   1
    54    23    53   1
    55    24    54   1
    56    26    55   1
    57    27    56   1
    58    28    57   1
    59    29    58   1
    60    30    59   1
@<TRIPOS>SUBSTRUCTURE
     1  MOL      2

