@<TRIPOS>MOLECULE
10gs_ligand_030
    59    60
SMALL
GAST_HUCK
****
This file was generated by PARSER (from files_GN.cpp)

@<TRIPOS>ATOM
      1 N          12.0243   12.9876   19.3109 N.4         1 MOL       0.2328
      2 CA         11.7158   11.5520   19.1803 C.3         1 MOL       0.0304
      3 C          10.5306   11.4329   18.3040 C.2         1 MOL       0.0846
      4 O          10.6410   11.7723   16.9994 O.co2       1 MOL      -0.5643
      5 CB         11.6073   10.9085   20.5956 C.3         1 MOL       0.0193
      6 CG         11.1374    9.4240   20.6104 C.3         1 MOL       0.0441
      7 CD         11.2031    8.7755   21.9122 C.2         1 MOL       0.1785
      8 OE1        11.6796    7.6508   21.9906 O.2         1 MOL      -0.3969
      9 OXT         9.2864   11.2456   18.7987 O.co2       1 MOL      -0.5643
     10 N          10.6694    9.3591   22.9790 N.am        1 MOL      -0.2648
     11 CA         10.5700    8.8515   24.3231 C.3         1 MOL       0.1400
     12 CB          9.3204    7.9241   24.5128 C.3         1 MOL       0.0361
     13 SG          9.0016    6.6211   23.2894 S.3         1 MOL      -0.1422
     14 CD         10.0889    5.2496   23.7652 C.3         1 MOL       0.0276
     15 CE          9.7331    4.6151   25.0625 C.ar        1 MOL      -0.0332
     16 CZ1         8.4464    4.0557   25.2521 C.ar        1 MOL      -0.0595
     17 CZ2        10.6676    4.5218   26.1226 C.ar        1 MOL      -0.0595
     18 CT1         8.0854    3.4730   26.4795 C.ar        1 MOL      -0.0685
     19 CT2        10.3006    3.9591   27.3593 C.ar        1 MOL      -0.0685
     20 CH          9.0071    3.4388   27.5402 C.ar        1 MOL      -0.0687
     21 C          11.8464    8.4118   24.8830 C.2         1 MOL       0.2059
     22 O          11.9141    7.3304   25.4540 O.2         1 MOL      -0.3942
     23 N          12.9114    9.2086   24.8375 N.am        1 MOL      -0.2587
     24 CA         14.2292    8.9502   25.3678 C.3         1 MOL       0.1278
     25 CB         14.6133   10.0379   26.3173 C.ar        1 MOL      -0.0049
     26 CG1        14.9985    9.7385   27.6478 C.ar        1 MOL      -0.0564
     27 CG2        14.6123   11.3958   25.9110 C.ar        1 MOL      -0.0564
     28 CD1        15.3552   10.7606   28.5471 C.ar        1 MOL      -0.0682
     29 CD2        14.9540   12.4200   26.8133 C.ar        1 MOL      -0.0682
     30 CE         15.3289   12.1029   28.1306 C.ar        1 MOL      -0.0685
     31 C          15.2391    8.8069   24.2965 C.2         1 MOL       0.0723
     32 O          14.9065    8.8535   22.9862 O.co2       1 MOL      -0.5642
     33 OXT        16.5145    8.4896   24.6177 O.co2       1 MOL      -0.5642
     34 H1         12.8936   13.1154   19.8338 H           1 MOL       0.2010
     35 H2         11.2631   13.4576   19.8048 H           1 MOL       0.2010
     36 H3         12.1299   13.4048   18.3838 H           1 MOL       0.2010
     37 H4         12.5528   11.0800   18.6633 H           1 MOL       0.1026
     38 H5         10.9249   11.5062   21.2042 H           1 MOL       0.0363
     39 H6         12.5948   10.9612   21.0633 H           1 MOL       0.0363
     40 H7         11.7338    8.8614   19.8859 H           1 MOL       0.0505
     41 H8         10.0968    9.3780   20.2850 H           1 MOL       0.0505
     42 H9         10.3142   10.2513   22.8438 H           1 MOL       0.1883
     43 H10        10.3341    9.7369   24.9193 H           1 MOL       0.0808
     44 H11         8.4380    8.5655   24.4554 H           1 MOL       0.0426
     45 H12         9.3158    7.4915   25.5140 H           1 MOL       0.0426
     46 H13        11.1166    5.6157   23.7517 H           1 MOL       0.0538
     47 H14        10.0033    4.4876   22.9848 H           1 MOL       0.0538
     48 H15         7.7608    4.0740   24.4941 H           1 MOL       0.0557
     49 H16        11.6260    4.8556   26.0003 H           1 MOL       0.0557
     50 H17         7.1535    3.0725   26.5995 H           1 MOL       0.0599
     51 H18        10.9770    3.9163   28.1247 H           1 MOL       0.0599
     52 H19         8.7440    3.0182   28.4347 H           1 MOL       0.0559
     53 H20        12.7959   10.0601   24.3838 H           1 MOL       0.1901
     54 H21        14.2363    7.9918   25.8912 H           1 MOL       0.0887
     55 H22        15.0303    8.7710   27.9757 H           1 MOL       0.0560
     56 H23        14.3469   11.6480   24.9572 H           1 MOL       0.0560
     57 H24        15.6337   10.5285   29.5051 H           1 MOL       0.0600
     58 H25        14.9230   13.3974   26.5153 H           1 MOL       0.0600
     59 H26        15.5786   12.8504   28.7867 H           1 MOL       0.0560
@<TRIPOS>BOND
     1     2     1   1
     2     2     5   1
     3     2     3   1
     4     3     4  ar
     5     3     9  ar
     6     5     6   1
     7     6     7   1
     8     7     8   2
     9     7    10  am
    10    10    11   1
    11    11    12   1
    12    11    21   1
    13    12    13   1
    14    13    14   1
    15    14    15   1
    16    15    16  ar
    17    15    17  ar
    18    16    18  ar
    19    17    19  ar
    20    18    20  ar
    21    19    20  ar
    22    21    22   2
    23    21    23  am
    24    23    24   1
    25    24    25   1
    26    24    31   1
    27    25    26  ar
    28    25    27  ar
    29    26    28  ar
    30    27    29  ar
    31    28    30  ar
    32    29    30  ar
    33    31    32  ar
    34    31    33  ar
    35     1    34   1
    36     1    35   1
    37     1    36   1
    38     2    37   1
    39     5    38   1
    40     5    39   1
    41     6    40   1
    42     6    41   1
    43    10    42   1
    44    11    43   1
    45    12    44   1
    46    12    45   1
    47    14    46   1
    48    14    47   1
    49    16    48   1
    50    17    49   1
    51    18    50   1
    52    19    51   1
    53    20    52   1
    54    23    53   1
    55    24    54   1
    56    26    55   1
    57    27    56   1
    58    28    57   1
    59    29    58   1
    60    30    59   1
@<TRIPOS>SUBSTRUCTURE
     1  MOL      2

