@<TRIPOS>MOLECULE
10gs_ligand_002
    59    60
SMALL
GAST_HUCK
****
This file was generated by PARSER (from files_GN.cpp)

@<TRIPOS>ATOM
      1 N          16.0288   10.1939   29.5494 N.4         1 MOL       0.2328
      2 CA         15.6944   11.2175   28.5364 C.3         1 MOL       0.0304
      3 C          14.9570   12.3135   29.2162 C.2         1 MOL       0.0846
      4 O          13.7289   12.7189   28.7976 O.co2       1 MOL      -0.5643
      5 CB         14.9507   10.5886   27.3213 C.3         1 MOL       0.0193
      6 CG         15.7337    9.4314   26.6576 C.3         1 MOL       0.0441
      7 CD         15.4818    9.1502   25.2546 C.2         1 MOL       0.1785
      8 OE1        16.3819    8.5880   24.6139 O.2         1 MOL      -0.3969
      9 OXT        15.5380   12.9828   30.2527 O.co2       1 MOL      -0.5643
     10 N          14.4356    9.6656   24.6189 N.am        1 MOL      -0.2648
     11 CA         14.1845    9.6466   23.1902 C.3         1 MOL       0.1400
     12 CB         13.1711   10.7733   22.7856 C.3         1 MOL       0.0361
     13 SG         11.4447   10.2111   22.5818 S.3         1 MOL      -0.1422
     14 CD         10.5389   11.7511   22.9295 C.3         1 MOL       0.0276
     15 CE         10.1861   12.5819   21.7437 C.ar        1 MOL      -0.0332
     16 CZ1        11.1877   13.0236   20.8508 C.ar        1 MOL      -0.0595
     17 CZ2         8.8612   13.0493   21.5389 C.ar        1 MOL      -0.0595
     18 CT1        10.8872   13.8834   19.7776 C.ar        1 MOL      -0.0685
     19 CT2         8.5546   13.9165   20.4711 C.ar        1 MOL      -0.0685
     20 CH          9.5663   14.3370   19.5927 C.ar        1 MOL      -0.0687
     21 C          15.4534    9.8190   22.4756 C.2         1 MOL       0.2059
     22 O          15.9940    8.8417   21.9682 O.2         1 MOL      -0.3942
     23 N          16.0000   11.0307   22.3630 N.am        1 MOL      -0.2587
     24 CA         17.2644   11.3925   21.7640 C.3         1 MOL       0.1278
     25 CB         17.2389   11.5962   20.2746 C.ar        1 MOL      -0.0049
     26 CG1        16.2931   10.9953   19.3958 C.ar        1 MOL      -0.0564
     27 CG2        18.2088   12.4398   19.6727 C.ar        1 MOL      -0.0564
     28 CD1        16.3130   11.2324   18.0080 C.ar        1 MOL      -0.0682
     29 CD2        18.2278   12.6989   18.2909 C.ar        1 MOL      -0.0682
     30 CE         17.2900   12.0700   17.4500 C.ar        1 MOL      -0.0685
     31 C          18.3801   10.4982   22.2083 C.2         1 MOL       0.0723
     32 O          18.1888    9.4793   23.0839 O.co2       1 MOL      -0.5642
     33 OXT        19.6492   10.7640   21.8178 O.co2       1 MOL      -0.5642
     34 H1         16.6074    9.4650   29.1201 H           1 MOL       0.2010
     35 H2         15.1573    9.7769   29.8913 H           1 MOL       0.2010
     36 H3         16.5383   10.6247   30.3245 H           1 MOL       0.2010
     37 H4         16.6351   11.6484   28.1704 H           1 MOL       0.1026
     38 H5         14.7853   11.3918   26.5822 H           1 MOL       0.0363
     39 H6         13.9748   10.2125   27.6407 H           1 MOL       0.0363
     40 H7         15.5410    8.5106   27.2094 H           1 MOL       0.0505
     41 H8         16.8063    9.6572   26.7487 H           1 MOL       0.0505
     42 H9         13.7755   10.1388   25.1567 H           1 MOL       0.1883
     43 H10        13.7596    8.6781   22.9384 H           1 MOL       0.0808
     44 H11        13.4756   11.2433   21.8350 H           1 MOL       0.0426
     45 H12        13.1956   11.5466   23.5646 H           1 MOL       0.0426
     46 H13        11.0954   12.3645   23.6481 H           1 MOL       0.0538
     47 H14         9.6281   11.4434   23.4459 H           1 MOL       0.0538
     48 H15        12.1545   12.7487   21.0016 H           1 MOL       0.0557
     49 H16         8.1131   12.7790   22.1706 H           1 MOL       0.0557
     50 H17        11.6200   14.2089   19.1506 H           1 MOL       0.0599
     51 H18         7.5934   14.2576   20.3369 H           1 MOL       0.0599
     52 H19         9.3411   14.9838   18.8250 H           1 MOL       0.0559
     53 H20        15.5095   11.7651   22.7868 H           1 MOL       0.1901
     54 H21        17.4877   12.3763   22.1796 H           1 MOL       0.0887
     55 H22        15.5391   10.4084   19.7489 H           1 MOL       0.0560
     56 H23        18.9011   12.9305   20.2548 H           1 MOL       0.0560
     57 H24        15.6222   10.7747   17.3954 H           1 MOL       0.0600
     58 H25        18.9374   13.3207   17.8881 H           1 MOL       0.0600
     59 H26        17.2974   12.2543   16.4404 H           1 MOL       0.0560
@<TRIPOS>BOND
     1     2     1   1
     2     2     5   1
     3     2     3   1
     4     3     4  ar
     5     3     9  ar
     6     5     6   1
     7     6     7   1
     8     7     8   2
     9     7    10  am
    10    10    11   1
    11    11    12   1
    12    11    21   1
    13    12    13   1
    14    13    14   1
    15    14    15   1
    16    15    16  ar
    17    15    17  ar
    18    16    18  ar
    19    17    19  ar
    20    18    20  ar
    21    19    20  ar
    22    21    22   2
    23    21    23  am
    24    23    24   1
    25    24    25   1
    26    24    31   1
    27    25    26  ar
    28    25    27  ar
    29    26    28  ar
    30    27    29  ar
    31    28    30  ar
    32    29    30  ar
    33    31    32  ar
    34    31    33  ar
    35     1    34   1
    36     1    35   1
    37     1    36   1
    38     2    37   1
    39     5    38   1
    40     5    39   1
    41     6    40   1
    42     6    41   1
    43    10    42   1
    44    11    43   1
    45    12    44   1
    46    12    45   1
    47    14    46   1
    48    14    47   1
    49    16    48   1
    50    17    49   1
    51    18    50   1
    52    19    51   1
    53    20    52   1
    54    23    53   1
    55    24    54   1
    56    26    55   1
    57    27    56   1
    58    28    57   1
    59    29    58   1
    60    30    59   1
@<TRIPOS>SUBSTRUCTURE
     1  MOL      2

