@<TRIPOS>MOLECULE
10gs_ligand_032
    59    60
SMALL
GAST_HUCK
****
This file was generated by PARSER (from files_GN.cpp)

@<TRIPOS>ATOM
      1 N          12.4485    7.9250   26.9775 N.4         1 MOL       0.2328
      2 CA         13.7460    8.0819   26.2967 C.3         1 MOL       0.0304
      3 C          14.4737    6.7903   26.3273 C.2         1 MOL       0.0846
      4 O          15.7660    6.6896   25.9394 O.co2       1 MOL      -0.5643
      5 CB         14.5200    9.2608   26.9796 C.3         1 MOL       0.0193
      6 CG         15.5852   10.0837   26.1683 C.3         1 MOL       0.0441
      7 CD         15.7527    9.7164   24.7686 C.2         1 MOL       0.1785
      8 OE1        16.7039    9.0112   24.4716 O.2         1 MOL      -0.3969
      9 OXT        13.8094    5.6220   26.4733 O.co2       1 MOL      -0.5643
     10 N          14.8807   10.1205   23.8491 N.am        1 MOL      -0.2648
     11 CA         14.8441    9.6608   22.4802 C.3         1 MOL       0.1400
     12 CB         13.6656   10.2268   21.6436 C.3         1 MOL       0.0361
     13 SG         12.0205    9.9139   22.3459 S.3         1 MOL      -0.1422
     14 CD         11.5235   11.6060   22.7787 C.3         1 MOL       0.0276
     15 CE         10.0896   11.6804   23.1732 C.ar        1 MOL      -0.0332
     16 CZ1         9.2375   12.6766   22.6340 C.ar        1 MOL      -0.0595
     17 CZ2         9.5534   10.7869   24.1344 C.ar        1 MOL      -0.0595
     18 CT1         7.9015   12.7825   23.0587 C.ar        1 MOL      -0.0685
     19 CT2         8.2128   10.8955   24.5575 C.ar        1 MOL      -0.0685
     20 CH          7.3914   11.8960   24.0232 C.ar        1 MOL      -0.0687
     21 C          16.1094    9.9601   21.8046 C.2         1 MOL       0.2059
     22 O          16.8165    9.0196   21.4538 O.2         1 MOL      -0.3942
     23 N          16.4570   11.2218   21.5578 N.am        1 MOL      -0.2587
     24 CA         17.6193   11.6748   20.8208 C.3         1 MOL       0.1278
     25 CB         17.4148   11.7650   19.3354 C.ar        1 MOL      -0.0049
     26 CG1        16.2653   11.2515   18.6635 C.ar        1 MOL      -0.0564
     27 CG2        18.3769   12.4511   18.5357 C.ar        1 MOL      -0.0564
     28 CD1        16.1074   11.3885   17.2713 C.ar        1 MOL      -0.0682
     29 CD2        18.2105   12.5887   17.1444 C.ar        1 MOL      -0.0682
     30 CE         17.0820   12.0590   16.5157 C.ar        1 MOL      -0.0685
     31 C          18.8757   10.9500   21.2000 C.2         1 MOL       0.0723
     32 O          20.0470   11.2126   20.5650 O.co2       1 MOL      -0.5642
     33 OXT        18.9411   10.1098   22.2636 O.co2       1 MOL      -0.5642
     34 H1         11.9524    8.8138   27.0111 H           1 MOL       0.2010
     35 H2         12.6104    7.5957   27.9245 H           1 MOL       0.2010
     36 H3         11.8867    7.2419   26.4798 H           1 MOL       0.2010
     37 H4         13.5297    8.3405   25.2622 H           1 MOL       0.1026
     38 H5         15.0117    8.8804   27.8895 H           1 MOL       0.0363
     39 H6         13.7709    9.9874   27.3325 H           1 MOL       0.0363
     40 H7         16.5540   10.0057   26.6843 H           1 MOL       0.0505
     41 H8         15.3189   11.1498   26.1989 H           1 MOL       0.0505
     42 H9         14.1509   10.6903   24.1400 H           1 MOL       0.1883
     43 H10        14.6931    8.5807   22.5380 H           1 MOL       0.0808
     44 H11        13.6773    9.7257   20.6774 H           1 MOL       0.0426
     45 H12        13.7913   11.2875   21.4519 H           1 MOL       0.0426
     46 H13        11.7170   12.2570   21.9208 H           1 MOL       0.0538
     47 H14        12.1510   11.9633   23.5995 H           1 MOL       0.0538
     48 H15         9.5875   13.3332   21.9408 H           1 MOL       0.0557
     49 H16        10.1424   10.0507   24.5394 H           1 MOL       0.0557
     50 H17         7.2988   13.5121   22.6666 H           1 MOL       0.0599
     51 H18         7.8466   10.2506   25.2537 H           1 MOL       0.0599
     52 H19         6.4223   11.9821   24.3352 H           1 MOL       0.0559
     53 H20        15.8402   11.9196   21.8355 H           1 MOL       0.1901
     54 H21        17.7561   12.7052   21.1510 H           1 MOL       0.0887
     55 H22        15.5244   10.7958   19.1688 H           1 MOL       0.0560
     56 H23        19.2021   12.8789   18.9729 H           1 MOL       0.0560
     57 H24        15.2715   11.0160   16.8182 H           1 MOL       0.0600
     58 H25        18.9126   13.1051   16.6008 H           1 MOL       0.0600
     59 H26        16.9538   12.1842   15.5045 H           1 MOL       0.0560
@<TRIPOS>BOND
     1     2     1   1
     2     2     5   1
     3     2     3   1
     4     3     4  ar
     5     3     9  ar
     6     5     6   1
     7     6     7   1
     8     7     8   2
     9     7    10  am
    10    10    11   1
    11    11    12   1
    12    11    21   1
    13    12    13   1
    14    13    14   1
    15    14    15   1
    16    15    16  ar
    17    15    17  ar
    18    16    18  ar
    19    17    19  ar
    20    18    20  ar
    21    19    20  ar
    22    21    22   2
    23    21    23  am
    24    23    24   1
    25    24    25   1
    26    24    31   1
    27    25    26  ar
    28    25    27  ar
    29    26    28  ar
    30    27    29  ar
    31    28    30  ar
    32    29    30  ar
    33    31    32  ar
    34    31    33  ar
    35     1    34   1
    36     1    35   1
    37     1    36   1
    38     2    37   1
    39     5    38   1
    40     5    39   1
    41     6    40   1
    42     6    41   1
    43    10    42   1
    44    11    43   1
    45    12    44   1
    46    12    45   1
    47    14    46   1
    48    14    47   1
    49    16    48   1
    50    17    49   1
    51    18    50   1
    52    19    51   1
    53    20    52   1
    54    23    53   1
    55    24    54   1
    56    26    55   1
    57    27    56   1
    58    28    57   1
    59    29    58   1
    60    30    59   1
@<TRIPOS>SUBSTRUCTURE
     1  MOL      2

