@<TRIPOS>MOLECULE
10gs_ligand_020
    59    60
SMALL
GAST_HUCK
****
This file was generated by PARSER (from files_GN.cpp)

@<TRIPOS>ATOM
      1 N          16.5103   10.7274   29.8802 N.4         1 MOL       0.2328
      2 CA         15.6272    9.9698   28.9729 C.3         1 MOL       0.0304
      3 C          16.3568    8.9987   28.1430 C.2         1 MOL       0.0846
      4 O          15.6562    8.1296   27.3831 O.co2       1 MOL      -0.5643
      5 CB         14.7449   10.9383   28.1337 C.3         1 MOL       0.0193
      6 CG         15.4394   11.6349   26.9234 C.3         1 MOL       0.0441
      7 CD         15.4686   10.7883   25.7389 C.2         1 MOL       0.1785
      8 OE1        16.3895    9.9950   25.5772 O.2         1 MOL      -0.3969
      9 OXT        17.6923    8.8484   28.2215 O.co2       1 MOL      -0.5643
     10 N          14.4586   10.8671   24.8760 N.am        1 MOL      -0.2648
     11 CA         14.2179   10.0578   23.7050 C.3         1 MOL       0.1400
     12 CB         12.9043   10.5943   23.0650 C.3         1 MOL       0.0361
     13 SG         12.4313    9.8876   21.4552 S.3         1 MOL      -0.1422
     14 CD         10.7131   10.4688   21.3565 C.3         1 MOL       0.0276
     15 CE         10.4603   11.7609   22.0586 C.ar        1 MOL      -0.0332
     16 CZ1        10.7588   12.9957   21.4293 C.ar        1 MOL      -0.0595
     17 CZ2        10.0277   11.7671   23.4053 C.ar        1 MOL      -0.0595
     18 CT1        10.6843   14.1965   22.1511 C.ar        1 MOL      -0.0685
     19 CT2         9.9613   12.9718   24.1272 C.ar        1 MOL      -0.0685
     20 CH         10.2968   14.1838   23.5049 C.ar        1 MOL      -0.0687
     21 C          15.3457   10.0348   22.7851 C.2         1 MOL       0.2059
     22 O          15.7046    8.9604   22.3111 O.2         1 MOL      -0.3942
     23 N          16.0303   11.1380   22.5101 N.am        1 MOL      -0.2587
     24 CA         17.2690   11.2538   21.7678 C.3         1 MOL       0.1278
     25 CB         17.1268   11.3213   20.2686 C.ar        1 MOL      -0.0049
     26 CG1        15.9228   10.9911   19.5905 C.ar        1 MOL      -0.0564
     27 CG2        18.1922   11.8269   19.4804 C.ar        1 MOL      -0.0564
     28 CD1        15.8015   11.1226   18.1984 C.ar        1 MOL      -0.0682
     29 CD2        18.0793   11.9564   18.0848 C.ar        1 MOL      -0.0682
     30 CE         16.8807   11.6054   17.4422 C.ar        1 MOL      -0.0685
     31 C          18.2975   10.2649   22.2327 C.2         1 MOL       0.0723
     32 O          19.6084   10.4329   21.9330 O.co2       1 MOL      -0.5642
     33 OXT        18.0128    9.2696   23.1065 O.co2       1 MOL      -0.5642
     34 H1         15.9545   11.1836   30.6127 H           1 MOL       0.2010
     35 H2         17.0199   11.4491   29.3585 H           1 MOL       0.2010
     36 H3         17.1770   10.0872   30.3168 H           1 MOL       0.2010
     37 H4         14.9628    9.3931   29.6171 H           1 MOL       0.1026
     38 H5         14.3792   11.7201   28.8098 H           1 MOL       0.0363
     39 H6         13.8562   10.3904   27.7896 H           1 MOL       0.0363
     40 H7         16.4553   11.9291   27.1887 H           1 MOL       0.0505
     41 H8         14.9022   12.5592   26.6849 H           1 MOL       0.0505
     42 H9         13.7838   11.5416   25.0698 H           1 MOL       0.1883
     43 H10        14.0294    9.0427   24.0527 H           1 MOL       0.0808
     44 H11        13.0030   11.6796   22.9227 H           1 MOL       0.0426
     45 H12        12.0832   10.4080   23.7719 H           1 MOL       0.0426
     46 H13        10.0955    9.6612   21.7605 H           1 MOL       0.0538
     47 H14        10.4496   10.5735   20.2984 H           1 MOL       0.0538
     48 H15        11.0764   13.0113   20.4584 H           1 MOL       0.0557
     49 H16         9.8111   10.8912   23.8875 H           1 MOL       0.0557
     50 H17        10.9214   15.0787   21.6983 H           1 MOL       0.0599
     51 H18         9.6802   12.9618   25.1068 H           1 MOL       0.0599
     52 H19        10.2778   15.0559   24.0358 H           1 MOL       0.0559
     53 H20        15.6957   11.9699   22.8840 H           1 MOL       0.1901
     54 H21        17.6623   12.2384   22.0555 H           1 MOL       0.0887
     55 H22        15.1012   10.6699   20.0988 H           1 MOL       0.0560
     56 H23        19.0650   12.1251   19.9169 H           1 MOL       0.0560
     57 H24        14.9219   10.8786   17.7345 H           1 MOL       0.0600
     58 H25        18.8615   12.3212   17.5378 H           1 MOL       0.0600
     59 H26        16.7890   11.7132   16.4288 H           1 MOL       0.0560
@<TRIPOS>BOND
     1     2     1   1
     2     2     5   1
     3     2     3   1
     4     3     4  ar
     5     3     9  ar
     6     5     6   1
     7     6     7   1
     8     7     8   2
     9     7    10  am
    10    10    11   1
    11    11    12   1
    12    11    21   1
    13    12    13   1
    14    13    14   1
    15    14    15   1
    16    15    16  ar
    17    15    17  ar
    18    16    18  ar
    19    17    19  ar
    20    18    20  ar
    21    19    20  ar
    22    21    22   2
    23    21    23  am
    24    23    24   1
    25    24    25   1
    26    24    31   1
    27    25    26  ar
    28    25    27  ar
    29    26    28  ar
    30    27    29  ar
    31    28    30  ar
    32    29    30  ar
    33    31    32  ar
    34    31    33  ar
    35     1    34   1
    36     1    35   1
    37     1    36   1
    38     2    37   1
    39     5    38   1
    40     5    39   1
    41     6    40   1
    42     6    41   1
    43    10    42   1
    44    11    43   1
    45    12    44   1
    46    12    45   1
    47    14    46   1
    48    14    47   1
    49    16    48   1
    50    17    49   1
    51    18    50   1
    52    19    51   1
    53    20    52   1
    54    23    53   1
    55    24    54   1
    56    26    55   1
    57    27    56   1
    58    28    57   1
    59    29    58   1
    60    30    59   1
@<TRIPOS>SUBSTRUCTURE
     1  MOL      2

