@<TRIPOS>MOLECULE
10gs_ligand_015
    59    60
SMALL
GAST_HUCK
****
This file was generated by PARSER (from files_GN.cpp)

@<TRIPOS>ATOM
      1 N           9.6845    1.3334   22.0018 N.4         1 MOL       0.2328
      2 CA         10.8005    2.0848   22.6040 C.3         1 MOL       0.0304
      3 C          11.6507    1.1262   23.3346 C.2         1 MOL       0.0846
      4 O          12.9179    0.8708   22.9305 O.co2       1 MOL      -0.5643
      5 CB         10.3012    3.2462   23.5166 C.3         1 MOL       0.0193
      6 CG         11.3007    4.4477   23.6051 C.3         1 MOL       0.0441
      7 CD         11.6029    4.9165   24.9509 C.2         1 MOL       0.1785
      8 OE1        12.1410    4.1291   25.7171 O.2         1 MOL      -0.3969
      9 OXT        11.1514    0.4216   24.3791 O.co2       1 MOL      -0.5643
     10 N          11.3997    6.1835   25.2975 N.am        1 MOL      -0.2648
     11 CA         11.8214    6.8684   26.4925 C.3         1 MOL       0.1400
     12 CB         11.4397    6.1389   27.8235 C.3         1 MOL       0.0361
     13 SG         10.8580    7.2815   29.1102 S.3         1 MOL      -0.1422
     14 CD          9.0677    7.0197   28.9990 C.3         1 MOL       0.0276
     15 CE          8.3054    8.2646   29.2508 C.ar        1 MOL      -0.0332
     16 CZ1         8.3487    8.9028   30.5144 C.ar        1 MOL      -0.0595
     17 CZ2         7.4893    8.8249   28.2364 C.ar        1 MOL      -0.0595
     18 CT1         7.6180   10.0828   30.7485 C.ar        1 MOL      -0.0685
     19 CT2         6.7492    9.9980   28.4756 C.ar        1 MOL      -0.0685
     20 CH          6.8177   10.6299   29.7295 C.ar        1 MOL      -0.0687
     21 C          13.2490    7.2030   26.4329 C.2         1 MOL       0.2059
     22 O          14.0456    6.2761   26.3283 O.2         1 MOL      -0.3942
     23 N          13.6833    8.4609   26.5047 N.am        1 MOL      -0.2587
     24 CA         15.0522    8.8901   26.3872 C.3         1 MOL       0.1278
     25 CB         15.3067   10.0904   27.2517 C.ar        1 MOL      -0.0049
     26 CG1        15.7183    9.9105   28.5988 C.ar        1 MOL      -0.0564
     27 CG2        15.1528   11.4227   26.7854 C.ar        1 MOL      -0.0564
     28 CD1        15.9901   11.0072   29.4395 C.ar        1 MOL      -0.0682
     29 CD2        15.4339   12.5248   27.6200 C.ar        1 MOL      -0.0682
     30 CE         15.8525   12.3169   28.9493 C.ar        1 MOL      -0.0685
     31 C          15.3976    9.0797   24.9571 C.2         1 MOL       0.0723
     32 O          14.4870    9.5261   24.0685 O.co2       1 MOL      -0.5642
     33 OXT        16.5848    8.6520   24.4717 O.co2       1 MOL      -0.5642
     34 H1          9.1098    1.9598   21.4367 H           1 MOL       0.2010
     35 H2          9.1155    0.9184   22.7445 H           1 MOL       0.2010
     36 H3         10.0560    0.5886   21.4081 H           1 MOL       0.2010
     37 H4         11.3732    2.5002   21.7734 H           1 MOL       0.1026
     38 H5         10.0756    2.8500   24.5098 H           1 MOL       0.0363
     39 H6          9.3532    3.6269   23.1157 H           1 MOL       0.0363
     40 H7         10.8882    5.2773   23.0103 H           1 MOL       0.0505
     41 H8         12.2544    4.1857   23.1359 H           1 MOL       0.0505
     42 H9         10.9387    6.7366   24.6443 H           1 MOL       0.1883
     43 H10        11.2633    7.8057   26.4599 H           1 MOL       0.0808
     44 H11        12.3005    5.5998   28.2327 H           1 MOL       0.0426
     45 H12        10.6745    5.3851   27.6337 H           1 MOL       0.0426
     46 H13         8.7880    6.2619   29.7355 H           1 MOL       0.0538
     47 H14         8.8215    6.6154   28.0136 H           1 MOL       0.0538
     48 H15         8.9145    8.5122   31.2705 H           1 MOL       0.0557
     49 H16         7.4213    8.3813   27.3188 H           1 MOL       0.0557
     50 H17         7.6652   10.5414   31.6592 H           1 MOL       0.0599
     51 H18         6.1615   10.3883   27.7367 H           1 MOL       0.0599
     52 H19         6.2764   11.4787   29.9003 H           1 MOL       0.0559
     53 H20        13.0131    9.1616   26.5718 H           1 MOL       0.1901
     54 H21        15.7114    8.0881   26.7477 H           1 MOL       0.0887
     55 H22        15.8407    8.9719   28.9772 H           1 MOL       0.0560
     56 H23        14.8519   11.6067   25.8264 H           1 MOL       0.0560
     57 H24        16.2979   10.8531   30.4023 H           1 MOL       0.0600
     58 H25        15.3349   13.4751   27.2664 H           1 MOL       0.0600
     59 H26        16.0614   13.1154   29.5516 H           1 MOL       0.0560
@<TRIPOS>BOND
     1     2     1   1
     2     2     5   1
     3     2     3   1
     4     3     4  ar
     5     3     9  ar
     6     5     6   1
     7     6     7   1
     8     7     8   2
     9     7    10  am
    10    10    11   1
    11    11    12   1
    12    11    21   1
    13    12    13   1
    14    13    14   1
    15    14    15   1
    16    15    16  ar
    17    15    17  ar
    18    16    18  ar
    19    17    19  ar
    20    18    20  ar
    21    19    20  ar
    22    21    22   2
    23    21    23  am
    24    23    24   1
    25    24    25   1
    26    24    31   1
    27    25    26  ar
    28    25    27  ar
    29    26    28  ar
    30    27    29  ar
    31    28    30  ar
    32    29    30  ar
    33    31    32  ar
    34    31    33  ar
    35     1    34   1
    36     1    35   1
    37     1    36   1
    38     2    37   1
    39     5    38   1
    40     5    39   1
    41     6    40   1
    42     6    41   1
    43    10    42   1
    44    11    43   1
    45    12    44   1
    46    12    45   1
    47    14    46   1
    48    14    47   1
    49    16    48   1
    50    17    49   1
    51    18    50   1
    52    19    51   1
    53    20    52   1
    54    23    53   1
    55    24    54   1
    56    26    55   1
    57    27    56   1
    58    28    57   1
    59    29    58   1
    60    30    59   1
@<TRIPOS>SUBSTRUCTURE
     1  MOL      2

