@<TRIPOS>MOLECULE
10gs_ligand_016
    59    60
SMALL
GAST_HUCK
****
This file was generated by PARSER (from files_GN.cpp)

@<TRIPOS>ATOM
      1 N          11.3524    0.5039   22.6041 N.4         1 MOL       0.2328
      2 CA         11.8097    1.8995   22.4801 C.3         1 MOL       0.0304
      3 C          13.0901    1.8999   21.7288 C.2         1 MOL       0.0846
      4 O          13.0786    1.6359   20.3967 O.co2       1 MOL      -0.5643
      5 CB         11.9105    2.5826   23.8864 C.3         1 MOL       0.0193
      6 CG         11.5713    4.1055   23.8522 C.3         1 MOL       0.0441
      7 CD         11.9395    4.8980   25.0251 C.2         1 MOL       0.1785
      8 OE1        12.4609    4.3539   25.9900 O.2         1 MOL      -0.3969
      9 OXT        14.2292    1.5822   22.3831 O.co2       1 MOL      -0.5643
     10 N          11.6953    6.2087   25.0081 N.am        1 MOL      -0.2648
     11 CA         12.0008    7.2123   25.9994 C.3         1 MOL       0.1400
     12 CB         11.3226    6.9886   27.3862 C.3         1 MOL       0.0361
     13 SG          9.5429    7.3351   27.3332 S.3         1 MOL      -0.1422
     14 CD          8.9324    5.9957   28.3945 C.3         1 MOL       0.0276
     15 CE          9.1529    4.6628   27.7784 C.ar        1 MOL      -0.0332
     16 CZ1         8.7383    4.4178   26.4467 C.ar        1 MOL      -0.0595
     17 CZ2         9.7642    3.6065   28.4997 C.ar        1 MOL      -0.0595
     18 CT1         8.9953    3.1845   25.8311 C.ar        1 MOL      -0.0685
     19 CT2         9.9922    2.3582   27.8919 C.ar        1 MOL      -0.0685
     20 CH          9.6081    2.1447   26.5584 C.ar        1 MOL      -0.0687
     21 C          13.4384    7.4413   26.1224 C.2         1 MOL       0.2059
     22 O          14.1688    6.4893   26.3825 O.2         1 MOL      -0.3942
     23 N          13.9404    8.6624   25.9624 N.am        1 MOL      -0.2587
     24 CA         15.3134    9.0704   26.0511 C.3         1 MOL       0.1278
     25 CB         15.4295   10.1745   27.0532 C.ar        1 MOL      -0.0049
     26 CG1        15.6945    9.8667   28.4132 C.ar        1 MOL      -0.0564
     27 CG2        15.2364   11.5391   26.7114 C.ar        1 MOL      -0.0564
     28 CD1        15.8051   10.8807   29.3821 C.ar        1 MOL      -0.0682
     29 CD2        15.3579   12.5558   27.6774 C.ar        1 MOL      -0.0682
     30 CE         15.6498   12.2285   29.0122 C.ar        1 MOL      -0.0685
     31 C          15.8108    9.4386   24.7015 C.2         1 MOL       0.0723
     32 O          15.0094   10.0479   23.7965 O.co2       1 MOL      -0.5642
     33 OXT        16.9757    8.9339   24.2445 O.co2       1 MOL      -0.5642
     34 H1         10.4541    0.4831   23.0947 H           1 MOL       0.2010
     35 H2         12.0370   -0.0451   23.1298 H           1 MOL       0.2010
     36 H3         11.2320    0.0907   21.6723 H           1 MOL       0.2010
     37 H4         11.0509    2.4142   21.8850 H           1 MOL       0.1026
     38 H5         12.9164    2.4247   24.2896 H           1 MOL       0.0363
     39 H6         11.2012    2.0957   24.5604 H           1 MOL       0.0363
     40 H7         10.4843    4.1939   23.7091 H           1 MOL       0.0505
     41 H8         12.0670    4.5349   22.9725 H           1 MOL       0.0505
     42 H9         11.2607    6.5406   24.2058 H           1 MOL       0.1883
     43 H10        11.5598    8.1320   25.6007 H           1 MOL       0.0808
     44 H11        11.7484    7.6730   28.1262 H           1 MOL       0.0426
     45 H12        11.5124    5.9715   27.7304 H           1 MOL       0.0426
     46 H13         7.8600    6.1450   28.5393 H           1 MOL       0.0538
     47 H14         9.4107    6.0830   29.3736 H           1 MOL       0.0538
     48 H15         8.2743    5.1495   25.9034 H           1 MOL       0.0557
     49 H16        10.0497    3.7437   29.4674 H           1 MOL       0.0557
     50 H17         8.7447    3.0455   24.8520 H           1 MOL       0.0599
     51 H18        10.4535    1.6115   28.4164 H           1 MOL       0.0599
     52 H19         9.7782    1.2392   26.1094 H           1 MOL       0.0559
     53 H20        13.3062    9.3675   25.7568 H           1 MOL       0.1901
     54 H21        15.9383    8.2351   26.3851 H           1 MOL       0.0887
     55 H22        15.8066    8.8928   28.7131 H           1 MOL       0.0560
     56 H23        15.0130   11.8062   25.7502 H           1 MOL       0.0560
     57 H24        16.0065   10.6395   30.3552 H           1 MOL       0.0600
     58 H25        15.2363   13.5346   27.4038 H           1 MOL       0.0600
     59 H26        15.7444   12.9646   29.7136 H           1 MOL       0.0560
@<TRIPOS>BOND
     1     2     1   1
     2     2     5   1
     3     2     3   1
     4     3     4  ar
     5     3     9  ar
     6     5     6   1
     7     6     7   1
     8     7     8   2
     9     7    10  am
    10    10    11   1
    11    11    12   1
    12    11    21   1
    13    12    13   1
    14    13    14   1
    15    14    15   1
    16    15    16  ar
    17    15    17  ar
    18    16    18  ar
    19    17    19  ar
    20    18    20  ar
    21    19    20  ar
    22    21    22   2
    23    21    23  am
    24    23    24   1
    25    24    25   1
    26    24    31   1
    27    25    26  ar
    28    25    27  ar
    29    26    28  ar
    30    27    29  ar
    31    28    30  ar
    32    29    30  ar
    33    31    32  ar
    34    31    33  ar
    35     1    34   1
    36     1    35   1
    37     1    36   1
    38     2    37   1
    39     5    38   1
    40     5    39   1
    41     6    40   1
    42     6    41   1
    43    10    42   1
    44    11    43   1
    45    12    44   1
    46    12    45   1
    47    14    46   1
    48    14    47   1
    49    16    48   1
    50    17    49   1
    51    18    50   1
    52    19    51   1
    53    20    52   1
    54    23    53   1
    55    24    54   1
    56    26    55   1
    57    27    56   1
    58    28    57   1
    59    29    58   1
    60    30    59   1
@<TRIPOS>SUBSTRUCTURE
     1  MOL      2

