@<TRIPOS>MOLECULE
10gs_ligand_035
    59    60
SMALL
GAST_HUCK
****
This file was generated by PARSER (from files_GN.cpp)

@<TRIPOS>ATOM
      1 N           9.5782   14.6646   19.0027 N.4         1 MOL       0.2328
      2 CA         10.1809   13.3551   18.6741 C.3         1 MOL       0.0304
      3 C           9.2196   12.2999   19.0652 C.2         1 MOL       0.0846
      4 O           8.7346   11.4323   18.1458 O.co2       1 MOL      -0.5643
      5 CB         11.5661   13.2379   19.3653 C.3         1 MOL       0.0193
      6 CG         12.1966   11.8046   19.3816 C.3         1 MOL       0.0441
      7 CD         11.5166   10.8205   20.2026 C.2         1 MOL       0.1785
      8 OE1        10.8855    9.9113   19.6579 O.2         1 MOL      -0.3969
      9 OXT         8.7780   12.2083   20.3434 O.co2       1 MOL      -0.5643
     10 N          11.5833   10.9179   21.5259 N.am        1 MOL      -0.2648
     11 CA         11.1121   10.0180   22.5354 C.3         1 MOL       0.1400
     12 CB          9.7868    9.2567   22.1950 C.3         1 MOL       0.0361
     13 SG          9.3307    7.9291   23.3538 S.3         1 MOL      -0.1422
     14 CD          8.9383    8.8635   24.8522 C.3         1 MOL       0.0276
     15 CE          9.2227    8.0057   26.0216 C.ar        1 MOL      -0.0332
     16 CZ1         8.2644    7.0785   26.4934 C.ar        1 MOL      -0.0595
     17 CZ2        10.4685    8.0973   26.6910 C.ar        1 MOL      -0.0595
     18 CT1         8.5382    6.2704   27.6114 C.ar        1 MOL      -0.0685
     19 CT2        10.7416    7.2882   27.8088 C.ar        1 MOL      -0.0685
     20 CH          9.7736    6.3820   28.2739 C.ar        1 MOL      -0.0687
     21 C          12.2367    9.2125   23.0002 C.2         1 MOL       0.2059
     22 O          12.2814    8.0109   22.7326 O.2         1 MOL      -0.3942
     23 N          13.1539    9.7842   23.7722 N.am        1 MOL      -0.2587
     24 CA         14.2226    9.1474   24.4862 C.3         1 MOL       0.1278
     25 CB         14.4872    9.9288   25.7337 C.ar        1 MOL      -0.0049
     26 CG1        14.4292    9.3042   27.0031 C.ar        1 MOL      -0.0564
     27 CG2        14.7883   11.3136   25.6809 C.ar        1 MOL      -0.0564
     28 CD1        14.6802   10.0336   28.1778 C.ar        1 MOL      -0.0682
     29 CD2        15.0322   12.0439   26.8573 C.ar        1 MOL      -0.0682
     30 CE         14.9716   11.4056   28.1074 C.ar        1 MOL      -0.0685
     31 C          15.4667    8.9818   23.7101 C.2         1 MOL       0.0723
     32 O          15.4974    9.1064   22.3581 O.co2       1 MOL      -0.5642
     33 OXT        16.6096    8.6492   24.3477 O.co2       1 MOL      -0.5642
     34 H1         10.2942   15.3945   18.9574 H           1 MOL       0.2010
     35 H2          9.2028   14.6322   19.9558 H           1 MOL       0.2010
     36 H3          8.8252   14.8764   18.3420 H           1 MOL       0.2010
     37 H4         10.3274   13.3255   17.5885 H           1 MOL       0.1026
     38 H5         11.5091   13.6331   20.3813 H           1 MOL       0.0363
     39 H6         12.2584   13.8827   18.8167 H           1 MOL       0.0363
     40 H7         13.2131   11.8918   19.7726 H           1 MOL       0.0505
     41 H8         12.2900   11.4519   18.3511 H           1 MOL       0.0505
     42 H9         12.0716   11.6925   21.8634 H           1 MOL       0.1883
     43 H10        10.8427   10.6836   23.3559 H           1 MOL       0.0808
     44 H11         9.8858    8.7752   21.2144 H           1 MOL       0.0426
     45 H12         8.9610    9.9749   22.1219 H           1 MOL       0.0426
     46 H13         7.8837    9.1497   24.8212 H           1 MOL       0.0538
     47 H14         9.5189    9.7800   24.9090 H           1 MOL       0.0538
     48 H15         7.3639    6.9807   26.0184 H           1 MOL       0.0557
     49 H16        11.1846    8.7491   26.3629 H           1 MOL       0.0557
     50 H17         7.8374    5.6045   27.9431 H           1 MOL       0.0599
     51 H18        11.6424    7.3668   28.2872 H           1 MOL       0.0599
     52 H19         9.9706    5.8001   29.0902 H           1 MOL       0.0559
     53 H20        13.0706   10.7449   23.8848 H           1 MOL       0.1901
     54 H21        13.8854    8.1384   24.7455 H           1 MOL       0.0887
     55 H22        14.2110    8.3049   27.0785 H           1 MOL       0.0560
     56 H23        14.8330   11.7961   24.7794 H           1 MOL       0.0560
     57 H24        14.6365    9.5666   29.0835 H           1 MOL       0.0600
     58 H25        15.2395   13.0417   26.8064 H           1 MOL       0.0600
     59 H26        15.1457   11.9358   28.9636 H           1 MOL       0.0560
@<TRIPOS>BOND
     1     2     1   1
     2     2     5   1
     3     2     3   1
     4     3     4  ar
     5     3     9  ar
     6     5     6   1
     7     6     7   1
     8     7     8   2
     9     7    10  am
    10    10    11   1
    11    11    12   1
    12    11    21   1
    13    12    13   1
    14    13    14   1
    15    14    15   1
    16    15    16  ar
    17    15    17  ar
    18    16    18  ar
    19    17    19  ar
    20    18    20  ar
    21    19    20  ar
    22    21    22   2
    23    21    23  am
    24    23    24   1
    25    24    25   1
    26    24    31   1
    27    25    26  ar
    28    25    27  ar
    29    26    28  ar
    30    27    29  ar
    31    28    30  ar
    32    29    30  ar
    33    31    32  ar
    34    31    33  ar
    35     1    34   1
    36     1    35   1
    37     1    36   1
    38     2    37   1
    39     5    38   1
    40     5    39   1
    41     6    40   1
    42     6    41   1
    43    10    42   1
    44    11    43   1
    45    12    44   1
    46    12    45   1
    47    14    46   1
    48    14    47   1
    49    16    48   1
    50    17    49   1
    51    18    50   1
    52    19    51   1
    53    20    52   1
    54    23    53   1
    55    24    54   1
    56    26    55   1
    57    27    56   1
    58    28    57   1
    59    29    58   1
    60    30    59   1
@<TRIPOS>SUBSTRUCTURE
     1  MOL      2

