@<TRIPOS>MOLECULE
10gs_ligand_022
    59    60
SMALL
GAST_HUCK
****
This file was generated by PARSER (from files_GN.cpp)

@<TRIPOS>ATOM
      1 N           9.1950    7.3729   18.6516 N.4         1 MOL       0.2328
      2 CA          7.9004    7.6805   19.2857 C.3         1 MOL       0.0304
      3 C           7.0519    8.3803   18.3074 C.2         1 MOL       0.0846
      4 O           7.4938    9.4907   17.6745 O.co2       1 MOL      -0.5643
      5 CB          8.0552    8.4940   20.6075 C.3         1 MOL       0.0193
      6 CG          8.9159    7.8149   21.7178 C.3         1 MOL       0.0441
      7 CD         10.3453    8.0426   21.5897 C.2         1 MOL       0.1785
      8 OE1        11.0935    7.1172   21.3164 O.2         1 MOL      -0.3969
      9 OXT         5.7397    8.0620   18.1913 O.co2       1 MOL      -0.5643
     10 N          10.8102    9.2721   21.7915 N.am        1 MOL      -0.2648
     11 CA         12.1537    9.7511   21.6214 C.3         1 MOL       0.1400
     12 CB         12.0935   11.3059   21.7148 C.3         1 MOL       0.0361
     13 SG         11.8050   11.9013   23.4092 S.3         1 MOL      -0.1422
     14 CD         10.8002   13.3735   23.0876 C.3         1 MOL       0.0276
     15 CE         10.5839   14.1508   24.3379 C.ar        1 MOL      -0.0332
     16 CZ1        10.9794   15.5066   24.4294 C.ar        1 MOL      -0.0595
     17 CZ2         9.9578   13.5556   25.4625 C.ar        1 MOL      -0.0595
     18 CT1        10.7767   16.2388   25.6170 C.ar        1 MOL      -0.0685
     19 CT2         9.7726   14.2800   26.6537 C.ar        1 MOL      -0.0685
     20 CH         10.1807   15.6237   26.7306 C.ar        1 MOL      -0.0687
     21 C          13.1638    9.1750   22.5091 C.2         1 MOL       0.2059
     22 O          12.8272    8.4411   23.4321 O.2         1 MOL      -0.3942
     23 N          14.4443    9.5102   22.3585 N.am        1 MOL      -0.2587
     24 CA         15.5587    9.1049   23.1803 C.3         1 MOL       0.1278
     25 CB         15.4139    9.5647   24.5999 C.ar        1 MOL      -0.0049
     26 CG1        15.0729   10.9032   24.9051 C.ar        1 MOL      -0.0564
     27 CG2        15.6387    8.6662   25.6788 C.ar        1 MOL      -0.0564
     28 CD1        14.9408   11.3309   26.2417 C.ar        1 MOL      -0.0682
     29 CD2        15.5164    9.0965   27.0088 C.ar        1 MOL      -0.0682
     30 CE         15.1612   10.4267   27.2926 C.ar        1 MOL      -0.0685
     31 C          16.8382    9.5801   22.6287 C.2         1 MOL       0.0723
     32 O          18.0064    9.1539   23.1655 O.co2       1 MOL      -0.5642
     33 OXT        16.8941   10.5075   21.6462 O.co2       1 MOL      -0.5642
     34 H1          9.7713    6.8212   19.2885 H           1 MOL       0.2010
     35 H2          9.6808    8.2421   18.4189 H           1 MOL       0.2010
     36 H3          9.0367    6.8362   17.7950 H           1 MOL       0.2010
     37 H4          7.4252    6.7265   19.5291 H           1 MOL       0.1026
     38 H5          7.0514    8.6379   21.0192 H           1 MOL       0.0363
     39 H6          8.4518    9.4894   20.3833 H           1 MOL       0.0363
     40 H7          8.7002    6.7431   21.7322 H           1 MOL       0.0505
     41 H8          8.6060    8.2006   22.6925 H           1 MOL       0.0505
     42 H9         10.1437    9.9342   22.0280 H           1 MOL       0.1883
     43 H10        12.4398    9.5045   20.5988 H           1 MOL       0.0808
     44 H11        11.3069   11.6713   21.0453 H           1 MOL       0.0426
     45 H12        13.0371   11.7311   21.3681 H           1 MOL       0.0426
     46 H13         9.8322   13.0602   22.6936 H           1 MOL       0.0538
     47 H14        11.2960   13.9772   22.3237 H           1 MOL       0.0538
     48 H15        11.4158   15.9766   23.6317 H           1 MOL       0.0557
     49 H16         9.6440   12.5821   25.4227 H           1 MOL       0.0557
     50 H17        11.0608   17.2194   25.6667 H           1 MOL       0.0599
     51 H18         9.3408   13.8298   27.4646 H           1 MOL       0.0599
     52 H19        10.0425   16.1515   27.5953 H           1 MOL       0.0559
     53 H20        14.6487   10.0999   21.6140 H           1 MOL       0.1901
     54 H21        15.5883    8.0099   23.1418 H           1 MOL       0.0887
     55 H22        14.9182   11.5785   24.1534 H           1 MOL       0.0560
     56 H23        15.8999    7.6946   25.4943 H           1 MOL       0.0560
     57 H24        14.6762   12.2977   26.4431 H           1 MOL       0.0600
     58 H25        15.6846    8.4402   27.7755 H           1 MOL       0.0600
     59 H26        15.0635   10.7358   28.2638 H           1 MOL       0.0560
@<TRIPOS>BOND
     1     2     1   1
     2     2     5   1
     3     2     3   1
     4     3     4  ar
     5     3     9  ar
     6     5     6   1
     7     6     7   1
     8     7     8   2
     9     7    10  am
    10    10    11   1
    11    11    12   1
    12    11    21   1
    13    12    13   1
    14    13    14   1
    15    14    15   1
    16    15    16  ar
    17    15    17  ar
    18    16    18  ar
    19    17    19  ar
    20    18    20  ar
    21    19    20  ar
    22    21    22   2
    23    21    23  am
    24    23    24   1
    25    24    25   1
    26    24    31   1
    27    25    26  ar
    28    25    27  ar
    29    26    28  ar
    30    27    29  ar
    31    28    30  ar
    32    29    30  ar
    33    31    32  ar
    34    31    33  ar
    35     1    34   1
    36     1    35   1
    37     1    36   1
    38     2    37   1
    39     5    38   1
    40     5    39   1
    41     6    40   1
    42     6    41   1
    43    10    42   1
    44    11    43   1
    45    12    44   1
    46    12    45   1
    47    14    46   1
    48    14    47   1
    49    16    48   1
    50    17    49   1
    51    18    50   1
    52    19    51   1
    53    20    52   1
    54    23    53   1
    55    24    54   1
    56    26    55   1
    57    27    56   1
    58    28    57   1
    59    29    58   1
    60    30    59   1
@<TRIPOS>SUBSTRUCTURE
     1  MOL      2

