@<TRIPOS>MOLECULE
10gs_ligand_006
    59    60
SMALL
GAST_HUCK
****
This file was generated by PARSER (from files_GN.cpp)

@<TRIPOS>ATOM
      1 N          11.1589   16.4781   27.5478 N.4         1 MOL       0.2328
      2 CA         10.0619   15.7319   26.9267 C.3         1 MOL       0.0304
      3 C           8.9722   15.5451   27.9136 C.2         1 MOL       0.0846
      4 O           8.1656   16.5945   28.1933 O.co2       1 MOL      -0.5643
      5 CB         10.5482   14.3743   26.3298 C.3         1 MOL       0.0193
      6 CG         11.0021   14.4768   24.8317 C.3         1 MOL       0.0441
      7 CD         10.6494   13.2921   24.0718 C.2         1 MOL       0.1785
      8 OE1         9.4659   13.0991   23.8029 O.2         1 MOL      -0.3969
      9 OXT         9.0255   14.5293   28.8103 O.co2       1 MOL      -0.5643
     10 N          11.5771   12.4427   23.6603 N.am        1 MOL      -0.2648
     11 CA         11.3656   11.1446   23.0825 C.3         1 MOL       0.1400
     12 CB         11.8114   11.0737   21.5941 C.3         1 MOL       0.0361
     13 SG         10.7051   11.9811   20.4794 S.3         1 MOL      -0.1422
     14 CD         11.4599   11.4783   18.9129 C.3         1 MOL       0.0276
     15 CE         12.8975   11.8416   18.8412 C.ar        1 MOL      -0.0332
     16 CZ1        13.2861   13.1566   18.4986 C.ar        1 MOL      -0.0595
     17 CZ2        13.9042   10.8924   19.1461 C.ar        1 MOL      -0.0595
     18 CT1        14.6486   13.5083   18.4568 C.ar        1 MOL      -0.0685
     19 CT2        15.2674   11.2360   19.0636 C.ar        1 MOL      -0.0685
     20 CH         15.6407   12.5488   18.7422 C.ar        1 MOL      -0.0687
     21 C          12.1029   10.1602   23.8886 C.2         1 MOL       0.2059
     22 O          11.4711    9.2802   24.4562 O.2         1 MOL      -0.3942
     23 N          13.4143   10.2833   24.0244 N.am        1 MOL      -0.2587
     24 CA         14.2992    9.4339   24.7905 C.3         1 MOL       0.1278
     25 CB         14.6811   10.1402   26.0497 C.ar        1 MOL      -0.0049
     26 CG1        14.7991    9.4262   27.2655 C.ar        1 MOL      -0.0564
     27 CG2        14.9142   11.5424   26.0715 C.ar        1 MOL      -0.0564
     28 CD1        15.1428   10.0865   28.4590 C.ar        1 MOL      -0.0682
     29 CD2        15.2517   12.1974   27.2641 C.ar        1 MOL      -0.0682
     30 CE         15.3511   11.4730   28.4630 C.ar        1 MOL      -0.0685
     31 C          15.4859    9.0753   23.9886 C.2         1 MOL       0.0723
     32 O          15.3899    8.9350   22.6451 O.co2       1 MOL      -0.5642
     33 OXT        16.5323    8.4542   24.5908 O.co2       1 MOL      -0.5642
     34 H1         11.8790   16.6570   26.8540 H           1 MOL       0.2010
     35 H2         11.5470   15.9334   28.3166 H           1 MOL       0.2010
     36 H3         10.8124   17.3620   27.9005 H           1 MOL       0.2010
     37 H4          9.6599   16.3342   26.1071 H           1 MOL       0.1026
     38 H5          9.7438   13.6351   26.4441 H           1 MOL       0.0363
     39 H6         11.3893   13.9993   26.9234 H           1 MOL       0.0363
     40 H7         12.0847   14.6441   24.8063 H           1 MOL       0.0505
     41 H8         10.5184   15.3267   24.3501 H           1 MOL       0.0505
     42 H9         12.5010   12.6866   23.8205 H           1 MOL       0.1883
     43 H10        10.2957   10.8852   23.0955 H           1 MOL       0.0808
     44 H11        11.8283   10.0169   21.2920 H           1 MOL       0.0426
     45 H12        12.8291   11.4738   21.4908 H           1 MOL       0.0426
     46 H13        10.9175   11.9752   18.1101 H           1 MOL       0.0538
     47 H14        11.3087   10.4038   18.7829 H           1 MOL       0.0538
     48 H15        12.5791   13.8660   18.2972 H           1 MOL       0.0557
     49 H16        13.6508    9.9353   19.4226 H           1 MOL       0.0557
     50 H17        14.9175   14.4650   18.2320 H           1 MOL       0.0599
     51 H18        15.9890   10.5424   19.2686 H           1 MOL       0.0599
     52 H19        16.6314   12.8109   18.7025 H           1 MOL       0.0559
     53 H20        13.8321   11.0495   23.5927 H           1 MOL       0.1901
     54 H21        13.7950    8.4906   25.0193 H           1 MOL       0.0887
     55 H22        14.6579    8.4126   27.2818 H           1 MOL       0.0560
     56 H23        14.8347   12.0833   25.2051 H           1 MOL       0.0560
     57 H24        15.2224    9.5526   29.3242 H           1 MOL       0.0600
     58 H25        15.4029   13.2084   27.2645 H           1 MOL       0.0600
     59 H26        15.5802   11.9507   29.3338 H           1 MOL       0.0560
@<TRIPOS>BOND
     1     2     1   1
     2     2     5   1
     3     2     3   1
     4     3     4  ar
     5     3     9  ar
     6     5     6   1
     7     6     7   1
     8     7     8   2
     9     7    10  am
    10    10    11   1
    11    11    12   1
    12    11    21   1
    13    12    13   1
    14    13    14   1
    15    14    15   1
    16    15    16  ar
    17    15    17  ar
    18    16    18  ar
    19    17    19  ar
    20    18    20  ar
    21    19    20  ar
    22    21    22   2
    23    21    23  am
    24    23    24   1
    25    24    25   1
    26    24    31   1
    27    25    26  ar
    28    25    27  ar
    29    26    28  ar
    30    27    29  ar
    31    28    30  ar
    32    29    30  ar
    33    31    32  ar
    34    31    33  ar
    35     1    34   1
    36     1    35   1
    37     1    36   1
    38     2    37   1
    39     5    38   1
    40     5    39   1
    41     6    40   1
    42     6    41   1
    43    10    42   1
    44    11    43   1
    45    12    44   1
    46    12    45   1
    47    14    46   1
    48    14    47   1
    49    16    48   1
    50    17    49   1
    51    18    50   1
    52    19    51   1
    53    20    52   1
    54    23    53   1
    55    24    54   1
    56    26    55   1
    57    27    56   1
    58    28    57   1
    59    29    58   1
    60    30    59   1
@<TRIPOS>SUBSTRUCTURE
     1  MOL      2

