@<TRIPOS>MOLECULE
10gs_ligand_017
    59    60
SMALL
GAST_HUCK
****
This file was generated by PARSER (from files_GN.cpp)

@<TRIPOS>ATOM
      1 N          17.8872   13.6675   19.5364 N.4         1 MOL       0.2328
      2 CA         18.5219   12.4088   19.9552 C.3         1 MOL       0.0304
      3 C          18.8483   11.5561   18.7892 C.2         1 MOL       0.0846
      4 O          19.9353   10.7513   18.8428 O.co2       1 MOL      -0.5643
      5 CB         17.6805   11.6949   21.0522 C.3         1 MOL       0.0193
      6 CG         16.4709   10.8730   20.5226 C.3         1 MOL       0.0441
      7 CD         15.8334   10.1018   21.5735 C.2         1 MOL       0.1785
      8 OE1        16.0733    8.9034   21.6553 O.2         1 MOL      -0.3969
      9 OXT        17.9110   11.2820   17.8509 O.co2       1 MOL      -0.5643
     10 N          14.9839   10.7055   22.3998 N.am        1 MOL      -0.2648
     11 CA         14.2250   10.1156   23.4727 C.3         1 MOL       0.1400
     12 CB         13.1307    9.1175   22.9542 C.3         1 MOL       0.0361
     13 SG         11.4146    9.6797   23.1687 S.3         1 MOL      -0.1422
     14 CD         10.8877    8.7108   24.6102 C.3         1 MOL       0.0276
     15 CE         11.0762    7.2443   24.4406 C.ar        1 MOL      -0.0332
     16 CZ1        12.0412    6.5439   25.2070 C.ar        1 MOL      -0.0595
     17 CZ2        10.3132    6.5197   23.4928 C.ar        1 MOL      -0.0595
     18 CT1        12.2577    5.1686   25.0078 C.ar        1 MOL      -0.0685
     19 CT2        10.5335    5.1417   23.2963 C.ar        1 MOL      -0.0685
     20 CH         11.5010    4.4664   24.0547 C.ar        1 MOL      -0.0687
     21 C          15.0518    9.5576   24.5482 C.2         1 MOL       0.2059
     22 O          16.1945    9.1689   24.3218 O.2         1 MOL      -0.3942
     23 N          14.5550    9.5237   25.7825 N.am        1 MOL      -0.2587
     24 CA         15.2029    9.1788   27.0250 C.3         1 MOL       0.1278
     25 CB         15.6153   10.3686   27.8437 C.ar        1 MOL      -0.0049
     26 CG1        15.8369   10.2283   29.2361 C.ar        1 MOL      -0.0564
     27 CG2        15.7964   11.6582   27.2769 C.ar        1 MOL      -0.0564
     28 CD1        16.2084   11.3274   30.0311 C.ar        1 MOL      -0.0682
     29 CD2        16.1689   12.7563   28.0717 C.ar        1 MOL      -0.0682
     30 CE         16.3670   12.5953   29.4515 C.ar        1 MOL      -0.0685
     31 C          16.2616    8.1505   26.8818 C.2         1 MOL       0.0723
     32 O          16.0559    7.0914   26.0693 O.co2       1 MOL      -0.5642
     33 OXT        17.4730    8.2675   27.4661 O.co2       1 MOL      -0.5642
     34 H1         17.7308   14.2653   20.3540 H           1 MOL       0.2010
     35 H2         16.9924   13.4779   19.0801 H           1 MOL       0.2010
     36 H3         18.5093   14.1504   18.8863 H           1 MOL       0.2010
     37 H4         19.4732   12.7006   20.4008 H           1 MOL       0.1026
     38 H5         17.3146   12.4572   21.7470 H           1 MOL       0.0363
     39 H6         18.3439   11.0332   21.6167 H           1 MOL       0.0363
     40 H7         16.8106   10.1949   19.7337 H           1 MOL       0.0505
     41 H8         15.7353   11.5471   20.0738 H           1 MOL       0.0505
     42 H9         14.8260   11.6475   22.2385 H           1 MOL       0.1883
     43 H10        13.7157   10.9758   23.9152 H           1 MOL       0.0808
     44 H11        13.2632    8.1377   23.3950 H           1 MOL       0.0426
     45 H12        13.2397    8.9679   21.8747 H           1 MOL       0.0426
     46 H13         9.8296    8.9065   24.7730 H           1 MOL       0.0538
     47 H14        11.4203    9.0899   25.4809 H           1 MOL       0.0538
     48 H15        12.6096    7.0393   25.9015 H           1 MOL       0.0557
     49 H16         9.6028    6.9973   22.9295 H           1 MOL       0.0557
     50 H17        12.9575    4.6787   25.5680 H           1 MOL       0.0599
     51 H18         9.9740    4.6324   22.6097 H           1 MOL       0.0599
     52 H19        11.6676    3.4740   23.9036 H           1 MOL       0.0559
     53 H20        13.6576    9.8803   25.8775 H           1 MOL       0.1901
     54 H21        14.4075    8.6891   27.5880 H           1 MOL       0.0887
     55 H22        15.7247    9.3150   29.6874 H           1 MOL       0.0560
     56 H23        15.6497   11.8172   26.2830 H           1 MOL       0.0560
     57 H24        16.3563   11.2074   31.0355 H           1 MOL       0.0600
     58 H25        16.2919   13.6687   27.6384 H           1 MOL       0.0600
     59 H26        16.6312   13.3969   30.0268 H           1 MOL       0.0560
@<TRIPOS>BOND
     1     2     1   1
     2     2     5   1
     3     2     3   1
     4     3     4  ar
     5     3     9  ar
     6     5     6   1
     7     6     7   1
     8     7     8   2
     9     7    10  am
    10    10    11   1
    11    11    12   1
    12    11    21   1
    13    12    13   1
    14    13    14   1
    15    14    15   1
    16    15    16  ar
    17    15    17  ar
    18    16    18  ar
    19    17    19  ar
    20    18    20  ar
    21    19    20  ar
    22    21    22   2
    23    21    23  am
    24    23    24   1
    25    24    25   1
    26    24    31   1
    27    25    26  ar
    28    25    27  ar
    29    26    28  ar
    30    27    29  ar
    31    28    30  ar
    32    29    30  ar
    33    31    32  ar
    34    31    33  ar
    35     1    34   1
    36     1    35   1
    37     1    36   1
    38     2    37   1
    39     5    38   1
    40     5    39   1
    41     6    40   1
    42     6    41   1
    43    10    42   1
    44    11    43   1
    45    12    44   1
    46    12    45   1
    47    14    46   1
    48    14    47   1
    49    16    48   1
    50    17    49   1
    51    18    50   1
    52    19    51   1
    53    20    52   1
    54    23    53   1
    55    24    54   1
    56    26    55   1
    57    27    56   1
    58    28    57   1
    59    29    58   1
    60    30    59   1
@<TRIPOS>SUBSTRUCTURE
     1  MOL      2

