@<TRIPOS>MOLECULE
10gs_ligand_024
    59    60
SMALL
GAST_HUCK
****
This file was generated by PARSER (from files_GN.cpp)

@<TRIPOS>ATOM
      1 N          10.8582   11.0620   22.3520 N.4         1 MOL       0.2328
      2 CA         10.8871    9.7462   23.0219 C.3         1 MOL       0.0304
      3 C          11.7398    8.8445   22.2100 C.2         1 MOL       0.0846
      4 O          13.0729    9.0639   22.1611 O.co2       1 MOL      -0.5643
      5 CB          9.4274    9.2883   23.3068 C.3         1 MOL       0.0193
      6 CG          9.2056    7.8548   23.8748 C.3         1 MOL       0.0441
      7 CD         10.1915    7.3900   24.8341 C.2         1 MOL       0.1785
      8 OE1        10.7009    6.2896   24.6724 O.2         1 MOL      -0.3969
      9 OXT        11.2363    7.8438   21.4554 O.co2       1 MOL      -0.5643
     10 N          10.4869    8.1352   25.8964 N.am        1 MOL      -0.2648
     11 CA         11.4053    7.8422   26.9684 C.3         1 MOL       0.1400
     12 CB         11.0812    6.4930   27.7051 C.3         1 MOL       0.0361
     13 SG         10.7406    6.6563   29.4818 S.3         1 MOL      -0.1422
     14 CD          8.9274    6.6505   29.5002 C.3         1 MOL       0.0276
     15 CE          8.3769    8.0251   29.5001 C.ar        1 MOL      -0.0332
     16 CZ1         8.4402    8.8059   30.6792 C.ar        1 MOL      -0.0595
     17 CZ2         7.7283    8.5613   28.3627 C.ar        1 MOL      -0.0595
     18 CT1         7.8536   10.0821   30.7282 C.ar        1 MOL      -0.0685
     19 CT2         7.1458    9.8423   28.4108 C.ar        1 MOL      -0.0685
     20 CH          7.2056   10.6013   29.5908 C.ar        1 MOL      -0.0687
     21 C          12.7978    7.9290   26.5145 C.2         1 MOL       0.2059
     22 O          13.2196    7.0992   25.7185 O.2         1 MOL      -0.3942
     23 N          13.6098    8.8815   26.9622 N.am        1 MOL      -0.2587
     24 CA         15.0214    9.0083   26.6925 C.3         1 MOL       0.1278
     25 CB         15.5428   10.1456   27.5169 C.ar        1 MOL      -0.0049
     26 CG1        15.8645    9.9242   28.8804 C.ar        1 MOL      -0.0564
     27 CG2        15.6389   11.4695   27.0172 C.ar        1 MOL      -0.0564
     28 CD1        16.3030   10.9799   29.7030 C.ar        1 MOL      -0.0682
     29 CD2        16.0870   12.5197   27.8343 C.ar        1 MOL      -0.0682
     30 CE         16.4178   12.2770   29.1790 C.ar        1 MOL      -0.0685
     31 C          15.3590    9.1201   25.2493 C.2         1 MOL       0.0723
     32 O          14.4713    9.6277   24.3614 O.co2       1 MOL      -0.5642
     33 OXT        16.5148    8.6013   24.7697 O.co2       1 MOL      -0.5642
     34 H1         10.3048   11.7198   22.9059 H           1 MOL       0.2010
     35 H2         10.4380   10.9717   21.4254 H           1 MOL       0.2010
     36 H3         11.8084   11.4261   22.2556 H           1 MOL       0.2010
     37 H4         11.3867    9.8858   23.9795 H           1 MOL       0.1026
     38 H5          8.8333    9.3912   22.3937 H           1 MOL       0.0363
     39 H6          9.0092    9.9935   24.0317 H           1 MOL       0.0363
     40 H7          9.1398    7.1542   23.0362 H           1 MOL       0.0505
     41 H8          8.2307    7.8347   24.3670 H           1 MOL       0.0505
     42 H9         10.0217    8.9865   25.9632 H           1 MOL       0.1883
     43 H10        11.2356    8.6543   27.6846 H           1 MOL       0.0808
     44 H11        11.9257    5.8028   27.6433 H           1 MOL       0.0426
     45 H12        10.2527    5.9774   27.2220 H           1 MOL       0.0426
     46 H13         8.6072    6.1414   30.4098 H           1 MOL       0.0538
     47 H14         8.5347    6.0593   28.6699 H           1 MOL       0.0538
     48 H15         8.8935    8.4370   31.5201 H           1 MOL       0.0557
     49 H16         7.6672    8.0205   27.4975 H           1 MOL       0.0557
     50 H17         7.8837   10.6238   31.5942 H           1 MOL       0.0599
     51 H18         6.6695   10.2180   27.5862 H           1 MOL       0.0599
     52 H19         6.7704   11.5261   29.6284 H           1 MOL       0.0559
     53 H20        13.2308    9.5225   27.5830 H           1 MOL       0.1901
     54 H21        15.5042    8.0880   27.0437 H           1 MOL       0.0887
     55 H22        15.7750    8.9910   29.2859 H           1 MOL       0.0560
     56 H23        15.3821   11.6874   26.0508 H           1 MOL       0.0560
     57 H24        16.5358   10.7960   30.6816 H           1 MOL       0.0600
     58 H25        16.1583   13.4640   27.4570 H           1 MOL       0.0600
     59 H26        16.7329   13.0446   29.7780 H           1 MOL       0.0560
@<TRIPOS>BOND
     1     2     1   1
     2     2     5   1
     3     2     3   1
     4     3     4  ar
     5     3     9  ar
     6     5     6   1
     7     6     7   1
     8     7     8   2
     9     7    10  am
    10    10    11   1
    11    11    12   1
    12    11    21   1
    13    12    13   1
    14    13    14   1
    15    14    15   1
    16    15    16  ar
    17    15    17  ar
    18    16    18  ar
    19    17    19  ar
    20    18    20  ar
    21    19    20  ar
    22    21    22   2
    23    21    23  am
    24    23    24   1
    25    24    25   1
    26    24    31   1
    27    25    26  ar
    28    25    27  ar
    29    26    28  ar
    30    27    29  ar
    31    28    30  ar
    32    29    30  ar
    33    31    32  ar
    34    31    33  ar
    35     1    34   1
    36     1    35   1
    37     1    36   1
    38     2    37   1
    39     5    38   1
    40     5    39   1
    41     6    40   1
    42     6    41   1
    43    10    42   1
    44    11    43   1
    45    12    44   1
    46    12    45   1
    47    14    46   1
    48    14    47   1
    49    16    48   1
    50    17    49   1
    51    18    50   1
    52    19    51   1
    53    20    52   1
    54    23    53   1
    55    24    54   1
    56    26    55   1
    57    27    56   1
    58    28    57   1
    59    29    58   1
    60    30    59   1
@<TRIPOS>SUBSTRUCTURE
     1  MOL      2

