@<TRIPOS>MOLECULE
10gs_ligand_021
    59    60
SMALL
GAST_HUCK
****
This file was generated by PARSER (from files_GN.cpp)

@<TRIPOS>ATOM
      1 N          16.9648   12.1803   21.5673 N.4         1 MOL       0.2328
      2 CA         16.8421   10.7623   21.9445 C.3         1 MOL       0.0304
      3 C          18.1504   10.2547   22.4057 C.2         1 MOL       0.0846
      4 O          19.2691   10.5257   21.6954 O.co2       1 MOL      -0.5643
      5 CB         16.2580    9.9133   20.7748 C.3         1 MOL       0.0193
      6 CG         14.7136   10.0388   20.6214 C.3         1 MOL       0.0441
      7 CD         13.9212    9.6394   21.7742 C.2         1 MOL       0.1785
      8 OE1        14.4360    9.0100   22.6942 O.2         1 MOL      -0.3969
      9 OXT        18.1736    9.1559   23.1942 O.co2       1 MOL      -0.5643
     10 N          12.6358    9.9641   21.8209 N.am        1 MOL      -0.2648
     11 CA         11.7279    9.6990   22.9089 C.3         1 MOL       0.1400
     12 CB         10.5594   10.7303   22.8439 C.3         1 MOL       0.0361
     13 SG         11.1014   12.3431   23.4698 S.3         1 MOL      -0.1422
     14 CD          9.7009   13.3926   22.9965 C.3         1 MOL       0.0276
     15 CE          9.5445   13.5810   21.5286 C.ar        1 MOL      -0.0332
     16 CZ1        10.6611   13.9066   20.7204 C.ar        1 MOL      -0.0595
     17 CZ2         8.2729   13.4960   20.9110 C.ar        1 MOL      -0.0595
     18 CT1        10.5199   14.1092   19.3372 C.ar        1 MOL      -0.0685
     19 CT2         8.1261   13.7209   19.5297 C.ar        1 MOL      -0.0685
     20 CH          9.2500   14.0244   18.7405 C.ar        1 MOL      -0.0687
     21 C          11.2204    8.3327   22.9522 C.2         1 MOL       0.2059
     22 O          11.4301    7.5906   21.9843 O.2         1 MOL      -0.3942
     23 N          10.6173    7.9180   24.0520 N.am        1 MOL      -0.2587
     24 CA         10.0200    6.6597   24.4144 C.3         1 MOL       0.1278
     25 CB         10.5691    6.2356   25.7376 C.ar        1 MOL      -0.0049
     26 CG1         9.7201    6.0871   26.8632 C.ar        1 MOL      -0.0564
     27 CG2        11.9529    5.9814   25.9054 C.ar        1 MOL      -0.0564
     28 CD1        10.2345    5.6831   28.1098 C.ar        1 MOL      -0.0682
     29 CD2        12.4673    5.5672   27.1503 C.ar        1 MOL      -0.0682
     30 CE         11.6070    5.4200   28.2507 C.ar        1 MOL      -0.0685
     31 C          10.0713    5.5354   23.4446 C.2         1 MOL       0.0723
     32 O          11.2141    5.1768   22.8140 O.co2       1 MOL      -0.5642
     33 OXT         8.9914    4.7404   23.2782 O.co2       1 MOL      -0.5642
     34 H1         16.0539   12.5305   21.2699 H           1 MOL       0.2010
     35 H2         17.6337   12.2800   20.8004 H           1 MOL       0.2010
     36 H3         17.2862   12.7254   22.3715 H           1 MOL       0.2010
     37 H4         16.1648   10.7245   22.8007 H           1 MOL       0.1026
     38 H5         16.5035    8.8578   20.9154 H           1 MOL       0.0363
     39 H6         16.7325   10.2274   19.8400 H           1 MOL       0.0363
     40 H7         14.3934    9.4225   19.7795 H           1 MOL       0.0505
     41 H8         14.4840   11.0753   20.3592 H           1 MOL       0.0505
     42 H9         12.2871   10.4692   21.0696 H           1 MOL       0.1883
     43 H10        12.2750    9.8728   23.8423 H           1 MOL       0.0808
     44 H11         9.7192   10.4106   23.4648 H           1 MOL       0.0426
     45 H12        10.2124   10.8191   21.8124 H           1 MOL       0.0426
     46 H13         9.8808   14.3726   23.4400 H           1 MOL       0.0538
     47 H14         8.7954   12.9898   23.4551 H           1 MOL       0.0538
     48 H15        11.5921   13.9837   21.1339 H           1 MOL       0.0557
     49 H16         7.4401   13.2842   21.4663 H           1 MOL       0.0557
     50 H17        11.3421   14.3201   18.7678 H           1 MOL       0.0599
     51 H18         7.2010   13.6650   19.0963 H           1 MOL       0.0599
     52 H19         9.1443   14.1827   17.7362 H           1 MOL       0.0559
     53 H20        10.5515    8.5957   24.7466 H           1 MOL       0.1901
     54 H21         8.9617    6.9077   24.5322 H           1 MOL       0.0887
     55 H22         8.7169    6.2693   26.7847 H           1 MOL       0.0560
     56 H23        12.5973    6.0948   25.1219 H           1 MOL       0.0560
     57 H24         9.6077    5.5753   28.9110 H           1 MOL       0.0600
     58 H25        13.4654    5.3716   27.2504 H           1 MOL       0.0600
     59 H26        11.9788    5.1161   29.1555 H           1 MOL       0.0560
@<TRIPOS>BOND
     1     2     1   1
     2     2     5   1
     3     2     3   1
     4     3     4  ar
     5     3     9  ar
     6     5     6   1
     7     6     7   1
     8     7     8   2
     9     7    10  am
    10    10    11   1
    11    11    12   1
    12    11    21   1
    13    12    13   1
    14    13    14   1
    15    14    15   1
    16    15    16  ar
    17    15    17  ar
    18    16    18  ar
    19    17    19  ar
    20    18    20  ar
    21    19    20  ar
    22    21    22   2
    23    21    23  am
    24    23    24   1
    25    24    25   1
    26    24    31   1
    27    25    26  ar
    28    25    27  ar
    29    26    28  ar
    30    27    29  ar
    31    28    30  ar
    32    29    30  ar
    33    31    32  ar
    34    31    33  ar
    35     1    34   1
    36     1    35   1
    37     1    36   1
    38     2    37   1
    39     5    38   1
    40     5    39   1
    41     6    40   1
    42     6    41   1
    43    10    42   1
    44    11    43   1
    45    12    44   1
    46    12    45   1
    47    14    46   1
    48    14    47   1
    49    16    48   1
    50    17    49   1
    51    18    50   1
    52    19    51   1
    53    20    52   1
    54    23    53   1
    55    24    54   1
    56    26    55   1
    57    27    56   1
    58    28    57   1
    59    29    58   1
    60    30    59   1
@<TRIPOS>SUBSTRUCTURE
     1  MOL      2

