@<TRIPOS>MOLECULE
10gs_ligand_034
    59    60
SMALL
GAST_HUCK
****
This file was generated by PARSER (from files_GN.cpp)

@<TRIPOS>ATOM
      1 N           7.7617    4.7351   23.9634 N.4         1 MOL       0.2328
      2 CA          9.0881    4.2297   24.3393 C.3         1 MOL       0.0304
      3 C           9.4320    3.0618   23.4962 C.2         1 MOL       0.0846
      4 O           9.6944    1.8313   24.0019 O.co2       1 MOL      -0.5643
      5 CB          9.1054    3.9395   25.8720 C.3         1 MOL       0.0193
      6 CG         10.5204    3.7403   26.4946 C.3         1 MOL       0.0441
      7 CD         11.2630    4.9266   26.9092 C.2         1 MOL       0.1785
      8 OE1        12.2319    4.7361   27.6372 O.2         1 MOL      -0.3969
      9 OXT         9.4889    3.1977   22.1534 O.co2       1 MOL      -0.5643
     10 N          10.9545    6.1544   26.5063 N.am        1 MOL      -0.2648
     11 CA         11.5610    7.4035   26.9032 C.3         1 MOL       0.1400
     12 CB         11.2003    7.7459   28.3800 C.3         1 MOL       0.0361
     13 SG          9.4169    8.0207   28.5995 S.3         1 MOL      -0.1422
     14 CD          8.9876    6.5402   29.5522 C.3         1 MOL       0.0276
     15 CE          7.5364    6.5359   29.8584 C.ar        1 MOL      -0.0332
     16 CZ1         7.0811    6.6838   31.1883 C.ar        1 MOL      -0.0595
     17 CZ2         6.5780    6.3750   28.8264 C.ar        1 MOL      -0.0595
     18 CT1         5.7072    6.6765   31.4829 C.ar        1 MOL      -0.0685
     19 CT2         5.2037    6.3793   29.1215 C.ar        1 MOL      -0.0685
     20 CH          4.7671    6.5299   30.4486 C.ar        1 MOL      -0.0687
     21 C          12.9924    7.5167   26.6200 C.2         1 MOL       0.2059
     22 O          13.6150    6.5715   26.1387 O.2         1 MOL      -0.3942
     23 N          13.6192    8.6735   26.8393 N.am        1 MOL      -0.2587
     24 CA         15.0156    8.9506   26.6449 C.3         1 MOL       0.1278
     25 CB         15.3551   10.1898   27.4171 C.ar        1 MOL      -0.0049
     26 CG1        15.7821   10.0861   28.7657 C.ar        1 MOL      -0.0564
     27 CG2        15.1834   11.4890   26.8716 C.ar        1 MOL      -0.0564
     28 CD1        16.0604   11.2336   29.5286 C.ar        1 MOL      -0.0682
     29 CD2        15.4680   12.6374   27.6312 C.ar        1 MOL      -0.0682
     30 CE         15.9067   12.5119   28.9603 C.ar        1 MOL      -0.0685
     31 C          15.3694    9.0454   25.2024 C.2         1 MOL       0.0723
     32 O          16.5006    8.4650   24.7426 O.co2       1 MOL      -0.5642
     33 OXT        14.4262    9.3520   24.2868 O.co2       1 MOL      -0.5642
     34 H1          7.6149    5.6484   24.3913 H           1 MOL       0.2010
     35 H2          7.0378    4.0981   24.2906 H           1 MOL       0.2010
     36 H3          7.6969    4.8280   22.9488 H           1 MOL       0.2010
     37 H4          9.8145    5.0139   24.1133 H           1 MOL       0.1026
     38 H5          8.5139    3.0386   26.0537 H           1 MOL       0.0363
     39 H6          8.6039    4.7507   26.4071 H           1 MOL       0.0363
     40 H7         11.1578    3.1716   25.8030 H           1 MOL       0.0505
     41 H8         10.3872    3.1080   27.3822 H           1 MOL       0.0505
     42 H9         10.2102    6.2305   25.8876 H           1 MOL       0.1883
     43 H10        11.0908    8.1675   26.2826 H           1 MOL       0.0808
     44 H11        11.6708    8.6845   28.6733 H           1 MOL       0.0426
     45 H12        11.5750    6.9803   29.0607 H           1 MOL       0.0426
     46 H13         9.5856    6.5545   30.4619 H           1 MOL       0.0538
     47 H14         9.2485    5.6438   28.9897 H           1 MOL       0.0538
     48 H15         7.7504    6.8007   31.9547 H           1 MOL       0.0557
     49 H16         6.8791    6.2595   27.8548 H           1 MOL       0.0557
     50 H17         5.3938    6.7761   32.4508 H           1 MOL       0.0599
     51 H18         4.5199    6.2703   28.3701 H           1 MOL       0.0599
     52 H19         3.7691    6.5246   30.6649 H           1 MOL       0.0559
     53 H20        13.0820    9.3937   27.2071 H           1 MOL       0.1901
     54 H21        15.5860    8.1085   27.0621 H           1 MOL       0.0887
     55 H22        15.8837    9.1672   29.2100 H           1 MOL       0.0560
     56 H23        14.8501   11.6101   25.9138 H           1 MOL       0.0560
     57 H24        16.3703   11.1412   30.4964 H           1 MOL       0.0600
     58 H25        15.3450   13.5625   27.2207 H           1 MOL       0.0600
     59 H26        16.1064   13.3450   29.5194 H           1 MOL       0.0560
@<TRIPOS>BOND
     1     2     1   1
     2     2     5   1
     3     2     3   1
     4     3     4  ar
     5     3     9  ar
     6     5     6   1
     7     6     7   1
     8     7     8   2
     9     7    10  am
    10    10    11   1
    11    11    12   1
    12    11    21   1
    13    12    13   1
    14    13    14   1
    15    14    15   1
    16    15    16  ar
    17    15    17  ar
    18    16    18  ar
    19    17    19  ar
    20    18    20  ar
    21    19    20  ar
    22    21    22   2
    23    21    23  am
    24    23    24   1
    25    24    25   1
    26    24    31   1
    27    25    26  ar
    28    25    27  ar
    29    26    28  ar
    30    27    29  ar
    31    28    30  ar
    32    29    30  ar
    33    31    32  ar
    34    31    33  ar
    35     1    34   1
    36     1    35   1
    37     1    36   1
    38     2    37   1
    39     5    38   1
    40     5    39   1
    41     6    40   1
    42     6    41   1
    43    10    42   1
    44    11    43   1
    45    12    44   1
    46    12    45   1
    47    14    46   1
    48    14    47   1
    49    16    48   1
    50    17    49   1
    51    18    50   1
    52    19    51   1
    53    20    52   1
    54    23    53   1
    55    24    54   1
    56    26    55   1
    57    27    56   1
    58    28    57   1
    59    29    58   1
    60    30    59   1
@<TRIPOS>SUBSTRUCTURE
     1  MOL      2

