@<TRIPOS>MOLECULE
10gs_ligand_019
    59    60
SMALL
GAST_HUCK
****
This file was generated by PARSER (from files_GN.cpp)

@<TRIPOS>ATOM
      1 N          15.9680   10.6617   26.5372 N.4         1 MOL       0.2328
      2 CA         14.8121   10.0793   25.8344 C.3         1 MOL       0.0304
      3 C          15.1791    8.7667   25.2509 C.2         1 MOL       0.0846
      4 O          14.3439    7.7135   25.4074 O.co2       1 MOL      -0.5643
      5 CB         14.2864   11.1083   24.7934 C.3         1 MOL       0.0193
      6 CG         13.1882   10.6069   23.8052 C.3         1 MOL       0.0441
      7 CD         13.7085    9.9442   22.6192 C.2         1 MOL       0.1785
      8 OE1        13.4166    8.7732   22.4078 O.2         1 MOL      -0.3969
      9 OXT        16.4221    8.5232   24.7775 O.co2       1 MOL      -0.5643
     10 N          14.4403   10.6401   21.7670 N.am        1 MOL      -0.2648
     11 CA         15.0446   10.2161   20.5300 C.3         1 MOL       0.1400
     12 CB         14.4856   11.0499   19.3384 C.3         1 MOL       0.0361
     13 SG         12.6724   11.1160   19.3427 S.3         1 MOL      -0.1422
     14 CD         12.4411   12.4262   18.1156 C.3         1 MOL       0.0276
     15 CE         11.1114   13.0506   18.3077 C.ar        1 MOL      -0.0332
     16 CZ1        10.0675   12.8867   17.3641 C.ar        1 MOL      -0.0595
     17 CZ2        10.8703   13.8485   19.4527 C.ar        1 MOL      -0.0595
     18 CT1         8.8224   13.5093   17.5606 C.ar        1 MOL      -0.0685
     19 CT2         9.6247   14.4646   19.6506 C.ar        1 MOL      -0.0685
     20 CH          8.5991   14.3014   18.6992 C.ar        1 MOL      -0.0687
     21 C          16.4827   10.4134   20.6307 C.2         1 MOL       0.2059
     22 O          17.2503    9.5238   20.2967 O.2         1 MOL      -0.3942
     23 N          16.9345   11.5833   21.0793 N.am        1 MOL      -0.2587
     24 CA         18.2731   12.0359   21.2727 C.3         1 MOL       0.1278
     25 CB         18.9892   12.3190   19.9833 C.ar        1 MOL      -0.0049
     26 CG1        18.8125   13.5842   19.3703 C.ar        1 MOL      -0.0564
     27 CG2        19.8395   11.3885   19.3408 C.ar        1 MOL      -0.0564
     28 CD1        19.4852   13.9194   18.1787 C.ar        1 MOL      -0.0682
     29 CD2        20.4997   11.7146   18.1401 C.ar        1 MOL      -0.0682
     30 CE         20.3286   12.9824   17.5650 C.ar        1 MOL      -0.0685
     31 C          19.0110   11.2381   22.2817 C.2         1 MOL       0.0723
     32 O          19.2438    9.9202   22.1316 O.co2       1 MOL      -0.5642
     33 OXT        19.3755   11.7778   23.4639 O.co2       1 MOL      -0.5642
     34 H1         15.7118   11.5713   26.9285 H           1 MOL       0.2010
     35 H2         16.7285   10.7883   25.8673 H           1 MOL       0.2010
     36 H3         16.2717   10.0402   27.2888 H           1 MOL       0.2010
     37 H4         14.0297    9.9116   26.5816 H           1 MOL       0.1026
     38 H5         15.1284   11.5152   24.2290 H           1 MOL       0.0363
     39 H6         13.8655   11.9455   25.3607 H           1 MOL       0.0363
     40 H7         12.6089   11.4689   23.4671 H           1 MOL       0.0505
     41 H8         12.4974    9.9533   24.3444 H           1 MOL       0.0505
     42 H9         14.5446   11.5800   21.9727 H           1 MOL       0.1883
     43 H10        14.8293    9.1582   20.3365 H           1 MOL       0.0808
     44 H11        14.8243   10.6200   18.3901 H           1 MOL       0.0426
     45 H12        14.8684   12.0725   19.4011 H           1 MOL       0.0426
     46 H13        12.5527   11.9811   17.1248 H           1 MOL       0.0538
     47 H14        13.2024   13.2024   18.2212 H           1 MOL       0.0538
     48 H15        10.2132   12.3165   16.5257 H           1 MOL       0.0557
     49 H16        11.6084   13.9867   20.1488 H           1 MOL       0.0557
     50 H17         8.0741   13.3826   16.8764 H           1 MOL       0.0599
     51 H18         9.4633   15.0275   20.4877 H           1 MOL       0.0599
     52 H19         7.6948   14.7512   18.8430 H           1 MOL       0.0559
     53 H20        16.2397   12.2261   21.3119 H           1 MOL       0.1901
     54 H21        18.1202   12.9993   21.7669 H           1 MOL       0.0887
     55 H22        18.2001   14.2850   19.7919 H           1 MOL       0.0560
     56 H23        20.0099   10.4720   19.7384 H           1 MOL       0.0560
     57 H24        19.3641   14.8418   17.7672 H           1 MOL       0.0600
     58 H25        21.1156   11.0318   17.6892 H           1 MOL       0.0600
     59 H26        20.8142   13.2280   16.6954 H           1 MOL       0.0560
@<TRIPOS>BOND
     1     2     1   1
     2     2     5   1
     3     2     3   1
     4     3     4  ar
     5     3     9  ar
     6     5     6   1
     7     6     7   1
     8     7     8   2
     9     7    10  am
    10    10    11   1
    11    11    12   1
    12    11    21   1
    13    12    13   1
    14    13    14   1
    15    14    15   1
    16    15    16  ar
    17    15    17  ar
    18    16    18  ar
    19    17    19  ar
    20    18    20  ar
    21    19    20  ar
    22    21    22   2
    23    21    23  am
    24    23    24   1
    25    24    25   1
    26    24    31   1
    27    25    26  ar
    28    25    27  ar
    29    26    28  ar
    30    27    29  ar
    31    28    30  ar
    32    29    30  ar
    33    31    32  ar
    34    31    33  ar
    35     1    34   1
    36     1    35   1
    37     1    36   1
    38     2    37   1
    39     5    38   1
    40     5    39   1
    41     6    40   1
    42     6    41   1
    43    10    42   1
    44    11    43   1
    45    12    44   1
    46    12    45   1
    47    14    46   1
    48    14    47   1
    49    16    48   1
    50    17    49   1
    51    18    50   1
    52    19    51   1
    53    20    52   1
    54    23    53   1
    55    24    54   1
    56    26    55   1
    57    27    56   1
    58    28    57   1
    59    29    58   1
    60    30    59   1
@<TRIPOS>SUBSTRUCTURE
     1  MOL      2

