@<TRIPOS>MOLECULE
10gs_ligand_011
    59    60
SMALL
GAST_HUCK
****
This file was generated by PARSER (from files_GN.cpp)

@<TRIPOS>ATOM
      1 N          15.7198   10.5697   29.5410 N.4         1 MOL       0.2328
      2 CA         16.3965   11.8591   29.3200 C.3         1 MOL       0.0304
      3 C          15.8736   12.9108   30.2210 C.2         1 MOL       0.0846
      4 O          16.7119   13.8108   30.7810 O.co2       1 MOL      -0.5643
      5 CB         16.3589   12.3065   27.8280 C.3         1 MOL       0.0193
      6 CG         14.9522   12.3093   27.1490 C.3         1 MOL       0.0441
      7 CD         14.7323   11.1946   26.2390 C.2         1 MOL       0.1785
      8 OE1        14.8745   10.0577   26.6745 O.2         1 MOL      -0.3969
      9 OXT        14.5844   12.9295   30.6203 O.co2       1 MOL      -0.5643
     10 N          14.3808   11.4016   24.9725 N.am        1 MOL      -0.2648
     11 CA         14.0813   10.4082   23.9687 C.3         1 MOL       0.1400
     12 CB         12.8741   10.9000   23.1109 C.3         1 MOL       0.0361
     13 SG         11.9929    9.5506   22.2794 S.3         1 MOL      -0.1422
     14 CD         11.2517    8.7285   23.7173 C.3         1 MOL       0.0276
     15 CE          9.7868    8.6420   23.5226 C.ar        1 MOL      -0.0332
     16 CZ1         9.2195    7.5770   22.7836 C.ar        1 MOL      -0.0595
     17 CZ2         8.9321    9.6358   24.0552 C.ar        1 MOL      -0.0595
     18 CT1         7.8273    7.4998   22.5980 C.ar        1 MOL      -0.0685
     19 CT2         7.5400    9.5584   23.8677 C.ar        1 MOL      -0.0685
     20 CH          6.9876    8.4875   23.1407 C.ar        1 MOL      -0.0687
     21 C          15.2402   10.1393   23.1225 C.2         1 MOL       0.2059
     22 O          15.4352    8.9898   22.7456 O.2         1 MOL      -0.3942
     23 N          15.9861   11.1483   22.6845 N.am        1 MOL      -0.2587
     24 CA         17.1305   11.1458   21.7999 C.3         1 MOL       0.1278
     25 CB         16.8049   11.1184   20.3316 C.ar        1 MOL      -0.0049
     26 CG1        17.8320   11.3662   19.3830 C.ar        1 MOL      -0.0564
     27 CG2        15.4826   10.9814   19.8311 C.ar        1 MOL      -0.0564
     28 CD1        17.5593   11.4540   18.0059 C.ar        1 MOL      -0.0682
     29 CD2        15.2025   11.0882   18.4602 C.ar        1 MOL      -0.0682
     30 CE         16.2406   11.3205   17.5446 C.ar        1 MOL      -0.0685
     31 C          18.1919   10.1809   22.2057 C.2         1 MOL       0.0723
     32 O          17.9947    9.1760   23.0888 O.co2       1 MOL      -0.5642
     33 OXT        19.4806   10.4136   21.8721 O.co2       1 MOL      -0.5642
     34 H1         16.1029    9.8586   28.9135 H           1 MOL       0.2010
     35 H2         14.7192   10.6688   29.3582 H           1 MOL       0.2010
     36 H3         15.8567   10.2702   30.5087 H           1 MOL       0.2010
     37 H4         17.4409   11.6932   29.5892 H           1 MOL       0.1026
     38 H5         17.0400   11.6662   27.2630 H           1 MOL       0.0363
     39 H6         16.7839   13.3133   27.7683 H           1 MOL       0.0363
     40 H7         14.8255   13.2581   26.6180 H           1 MOL       0.0505
     41 H8         14.1715   12.2862   27.9122 H           1 MOL       0.0505
     42 H9         14.3076   12.3252   24.6874 H           1 MOL       0.1883
     43 H10        13.7989    9.4760   24.4637 H           1 MOL       0.0808
     44 H11        13.2132   11.5973   22.3435 H           1 MOL       0.0426
     45 H12        12.1557   11.4393   23.7289 H           1 MOL       0.0426
     46 H13        11.4740    9.2509   24.6507 H           1 MOL       0.0538
     47 H14        11.6844    7.7307   23.8054 H           1 MOL       0.0538
     48 H15         9.8180    6.8522   22.3775 H           1 MOL       0.0557
     49 H16         9.3177   10.4243   24.5816 H           1 MOL       0.0557
     50 H17         7.4251    6.7230   22.0682 H           1 MOL       0.0599
     51 H18         6.9311   10.2793   24.2599 H           1 MOL       0.0599
     52 H19         5.9759    8.4298   23.0079 H           1 MOL       0.0559
     53 H20        15.7080   12.0268   22.9918 H           1 MOL       0.1901
     54 H21        17.5587   12.1414   21.9647 H           1 MOL       0.0887
     55 H22        18.7954   11.5146   19.6865 H           1 MOL       0.0560
     56 H23        14.6944   10.8317   20.4599 H           1 MOL       0.0560
     57 H24        18.3166   11.6406   17.3468 H           1 MOL       0.0600
     58 H25        14.2368   11.0135   18.1275 H           1 MOL       0.0600
     59 H26        16.0367   11.4061   16.5463 H           1 MOL       0.0560
@<TRIPOS>BOND
     1     2     1   1
     2     2     5   1
     3     2     3   1
     4     3     4  ar
     5     3     9  ar
     6     5     6   1
     7     6     7   1
     8     7     8   2
     9     7    10  am
    10    10    11   1
    11    11    12   1
    12    11    21   1
    13    12    13   1
    14    13    14   1
    15    14    15   1
    16    15    16  ar
    17    15    17  ar
    18    16    18  ar
    19    17    19  ar
    20    18    20  ar
    21    19    20  ar
    22    21    22   2
    23    21    23  am
    24    23    24   1
    25    24    25   1
    26    24    31   1
    27    25    26  ar
    28    25    27  ar
    29    26    28  ar
    30    27    29  ar
    31    28    30  ar
    32    29    30  ar
    33    31    32  ar
    34    31    33  ar
    35     1    34   1
    36     1    35   1
    37     1    36   1
    38     2    37   1
    39     5    38   1
    40     5    39   1
    41     6    40   1
    42     6    41   1
    43    10    42   1
    44    11    43   1
    45    12    44   1
    46    12    45   1
    47    14    46   1
    48    14    47   1
    49    16    48   1
    50    17    49   1
    51    18    50   1
    52    19    51   1
    53    20    52   1
    54    23    53   1
    55    24    54   1
    56    26    55   1
    57    27    56   1
    58    28    57   1
    59    29    58   1
    60    30    59   1
@<TRIPOS>SUBSTRUCTURE
     1  MOL      2

