@<TRIPOS>MOLECULE
1a30_ligand_083
    49    48
SMALL
GAST_HUCK
****
This file was generated by PARSER (from files_GN.cpp)

@<TRIPOS>ATOM
      1 N          18.0554   20.2183    5.7075 N.4         1 MOL       0.2380
      2 CA         17.0759   19.9802    4.6301 C.3         1 MOL       0.0665
      3 C          15.8766   20.7739    4.8725 C.2         1 MOL       0.2269
      4 O          15.8015   21.8734    4.3381 O.2         1 MOL      -0.3907
      5 CB         16.7954   18.4643    4.4546 C.3         1 MOL       0.0194
      6 CG         17.6344   17.8135    3.3130 C.3         1 MOL       0.0075
      7 CD         17.3640   16.3859    3.1439 C.2         1 MOL       0.0351
      8 OE1        16.7423   15.9300    2.0229 O.co2       1 MOL      -0.5690
      9 OE2        17.9190   15.4854    3.9919 O.co2       1 MOL      -0.5690
     10 N          14.9298   20.3591    5.7042 N.am        1 MOL      -0.2595
     11 CA         13.7765   21.1247    6.1121 C.3         1 MOL       0.1424
     12 C          13.5980   21.0064    7.5511 C.2         1 MOL       0.2051
     13 O          12.5591   21.3975    8.0846 O.2         1 MOL      -0.3943
     14 CB         12.5347   20.7269    5.2439 C.3         1 MOL       0.0406
     15 CG         11.7454   21.8759    4.7708 C.2         1 MOL       0.0393
     16 OD1        10.4290   21.7483    4.4765 O.co2       1 MOL      -0.5688
     17 OD2        12.3520   23.0593    4.4801 O.co2       1 MOL      -0.5688
     18 N          14.6134   20.6163    8.3093 N.am        1 MOL      -0.2694
     19 CA         14.6368   20.5431    9.7417 C.3         1 MOL       0.0946
     20 C          14.1364   21.7964   10.3313 C.2         1 MOL       0.0601
     21 O          12.9343   21.8214   10.9424 O.co2       1 MOL      -0.5666
     22 CB         16.0764   20.2473   10.2619 C.3         1 MOL      -0.0156
     23 CG         16.6640   18.8435    9.8880 C.3         1 MOL      -0.0431
     24 CD1        18.0955   18.6968   10.4953 C.3         1 MOL      -0.0625
     25 CD2        15.7617   17.6615   10.3621 C.3         1 MOL      -0.0625
     26 OXT        14.9371   22.8900   10.4304 O.co2       1 MOL      -0.5666
     27 H1         18.9027   19.6719    5.5343 H           1 MOL       0.2015
     28 H2         17.6593   19.9384    6.6076 H           1 MOL       0.2015
     29 H3         18.2952   21.2125    5.7380 H           1 MOL       0.2015
     30 H4         17.5494   20.3373    3.7087 H           1 MOL       0.1099
     31 H5         15.7345   18.2986    4.2238 H           1 MOL       0.0363
     32 H6         17.0102   17.9432    5.4005 H           1 MOL       0.0363
     33 H7         18.7027   17.9536    3.5105 H           1 MOL       0.0434
     34 H8         17.4023   18.3396    2.3794 H           1 MOL       0.0434
     35 H9         15.0623   19.4897    6.1169 H           1 MOL       0.1886
     36 H10        13.9980   22.1832    5.9268 H           1 MOL       0.0819
     37 H11        11.8914   20.0562    5.8299 H           1 MOL       0.0478
     38 H12        12.8528   20.1681    4.3554 H           1 MOL       0.0478
     39 H13        15.4231   20.3431    7.8464 H           1 MOL       0.1875
     40 H14        14.0007   19.7172   10.0759 H           1 MOL       0.0726
     41 H15        16.0855   20.3404   11.3600 H           1 MOL       0.0308
     42 H16        16.7444   21.0125    9.8475 H           1 MOL       0.0308
     43 H17        16.7718   18.7683    8.7981 H           1 MOL       0.0297
     44 H18        18.5427   17.7303   10.2197 H           1 MOL       0.0232
     45 H19        18.0586   18.7679   11.5906 H           1 MOL       0.0232
     46 H20        18.7516   19.4880   10.1107 H           1 MOL       0.0232
     47 H21        14.8432   17.6451    9.7753 H           1 MOL       0.0232
     48 H22        15.5096   17.7712   11.4206 H           1 MOL       0.0232
     49 H23        16.2702   16.7046   10.2151 H           1 MOL       0.0232
@<TRIPOS>BOND
     1     3     2   1
     2     2     5   1
     3     2     1   1
     4     5     6   1
     5     6     7   1
     6     7     8  ar
     7     7     9  ar
     8     3     4   2
     9    12    11   1
    10    11    14   1
    11    11    10   1
    12    14    15   1
    13    15    16  ar
    14    15    17  ar
    15    12    13   2
    16    19    20   1
    17    19    22   1
    18    18    19   1
    19    22    23   1
    20    23    25   1
    21    23    24   1
    22    20    26  ar
    23    20    21  ar
    24    10     3  am
    25    12    18  am
    26     1    27   1
    27     1    28   1
    28     1    29   1
    29     2    30   1
    30     5    31   1
    31     5    32   1
    32     6    33   1
    33     6    34   1
    34    10    35   1
    35    11    36   1
    36    14    37   1
    37    14    38   1
    38    18    39   1
    39    19    40   1
    40    22    41   1
    41    22    42   1
    42    23    43   1
    43    24    44   1
    44    24    45   1
    45    24    46   1
    46    25    47   1
    47    25    48   1
    48    25    49   1
@<TRIPOS>SUBSTRUCTURE
     1  MOL      2

