@<TRIPOS>MOLECULE
1a30_ligand_010
    49    48
SMALL
GAST_HUCK
****
This file was generated by PARSER (from files_GN.cpp)

@<TRIPOS>ATOM
      1 N          14.7613   24.3655    4.8535 N.4         1 MOL       0.2380
      2 CA         13.5547   23.5654    5.1648 C.3         1 MOL       0.0665
      3 C          12.3421   24.3842    5.1137 C.2         1 MOL       0.2269
      4 O          12.3606   25.4607    4.5186 O.2         1 MOL      -0.3907
      5 CB         13.7619   22.7976    6.5257 C.3         1 MOL       0.0194
      6 CG         13.6048   21.2483    6.4597 C.3         1 MOL       0.0075
      7 CD         12.4310   20.7595    5.7117 C.2         1 MOL       0.0351
      8 OE1        12.5303   20.4921    4.3903 O.co2       1 MOL      -0.5690
      9 OE2        11.2000   20.7584    6.2678 O.co2       1 MOL      -0.5690
     10 N          11.2005   23.9262    5.6146 N.am        1 MOL      -0.2595
     11 CA          9.8951   24.5381    5.6450 C.3         1 MOL       0.1424
     12 C           9.2499   24.5626    4.3347 C.2         1 MOL       0.2051
     13 O           9.9266   24.6481    3.3222 O.2         1 MOL      -0.3943
     14 CB          9.8651   25.9402    6.3333 C.3         1 MOL       0.0406
     15 CG         10.3645   25.9709    7.7247 C.2         1 MOL       0.0393
     16 OD1        10.4250   27.1557    8.3748 O.co2       1 MOL      -0.5688
     17 OD2        10.6449   24.8469    8.4238 O.co2       1 MOL      -0.5688
     18 N           7.9191   24.4735    4.2497 N.am        1 MOL      -0.2694
     19 CA          7.1365   24.4773    3.0381 C.3         1 MOL       0.0946
     20 C           7.4689   23.3167    2.1721 C.2         1 MOL       0.0601
     21 O           7.7635   22.1243    2.7411 O.co2       1 MOL      -0.5666
     22 CB          7.2019   25.8764    2.3179 C.3         1 MOL      -0.0156
     23 CG          5.9787   26.8338    2.5178 C.3         1 MOL      -0.0431
     24 CD1         4.7144   26.3558    1.7504 C.3         1 MOL      -0.0625
     25 CD2         5.6718   27.1239    4.0131 C.3         1 MOL      -0.0625
     26 OXT         6.9693   23.2584    0.9173 O.co2       1 MOL      -0.5666
     27 H1         15.5988   23.7959    4.9885 H           1 MOL       0.2015
     28 H2         14.8005   25.1735    5.4741 H           1 MOL       0.2015
     29 H3         14.7420   24.6885    3.8811 H           1 MOL       0.2015
     30 H4         13.4720   22.8453    4.3492 H           1 MOL       0.1099
     31 H5         13.0861   23.1829    7.2924 H           1 MOL       0.0363
     32 H6         14.7692   22.9904    6.9034 H           1 MOL       0.0363
     33 H7         13.5381   20.8572    7.4771 H           1 MOL       0.0434
     34 H8         14.5070   20.8282    6.0099 H           1 MOL       0.0434
     35 H9         11.2498   23.0686    6.0594 H           1 MOL       0.1886
     36 H10         9.2963   23.8690    6.2733 H           1 MOL       0.0819
     37 H11         8.8354   26.3080    6.3535 H           1 MOL       0.0478
     38 H12        10.4495   26.6542    5.7485 H           1 MOL       0.0478
     39 H13         7.4270   24.3679    5.0830 H           1 MOL       0.1875
     40 H14         6.1078   24.2941    3.3532 H           1 MOL       0.0726
     41 H15         7.3413   25.7413    1.2408 H           1 MOL       0.0308
     42 H16         8.0932   26.4205    2.6516 H           1 MOL       0.0308
     43 H17         6.2623   27.7937    2.0704 H           1 MOL       0.0297
     44 H18         3.9383   27.1220    1.7944 H           1 MOL       0.0232
     45 H19         4.3140   25.4361    2.1798 H           1 MOL       0.0232
     46 H20         4.9550   26.1755    0.7008 H           1 MOL       0.0232
     47 H21         6.5637   27.5032    4.5169 H           1 MOL       0.0232
     48 H22         5.3340   26.2229    4.5281 H           1 MOL       0.0232
     49 H23         4.8869   27.8778    4.0947 H           1 MOL       0.0232
@<TRIPOS>BOND
     1     3     2   1
     2     2     5   1
     3     2     1   1
     4     5     6   1
     5     6     7   1
     6     7     8  ar
     7     7     9  ar
     8     3     4   2
     9    12    11   1
    10    11    14   1
    11    11    10   1
    12    14    15   1
    13    15    16  ar
    14    15    17  ar
    15    12    13   2
    16    19    20   1
    17    19    22   1
    18    18    19   1
    19    22    23   1
    20    23    25   1
    21    23    24   1
    22    20    26  ar
    23    20    21  ar
    24    10     3  am
    25    12    18  am
    26     1    27   1
    27     1    28   1
    28     1    29   1
    29     2    30   1
    30     5    31   1
    31     5    32   1
    32     6    33   1
    33     6    34   1
    34    10    35   1
    35    11    36   1
    36    14    37   1
    37    14    38   1
    38    18    39   1
    39    19    40   1
    40    22    41   1
    41    22    42   1
    42    23    43   1
    43    24    44   1
    44    24    45   1
    45    24    46   1
    46    25    47   1
    47    25    48   1
    48    25    49   1
@<TRIPOS>SUBSTRUCTURE
     1  MOL      2

