@<TRIPOS>MOLECULE
1a30_ligand_065
    49    48
SMALL
GAST_HUCK
****
This file was generated by PARSER (from files_GN.cpp)

@<TRIPOS>ATOM
      1 N          14.3050   24.6920    4.4867 N.4         1 MOL       0.2380
      2 CA         12.8776   24.8691    4.1695 C.3         1 MOL       0.0665
      3 C          12.1537   25.0722    5.4139 C.2         1 MOL       0.2269
      4 O          11.5766   26.1397    5.6076 O.2         1 MOL      -0.3907
      5 CB         12.2770   23.7461    3.2523 C.3         1 MOL       0.0194
      6 CG         12.9389   22.3373    3.2755 C.3         1 MOL       0.0075
      7 CD         12.6181   21.5297    4.4640 C.2         1 MOL       0.0351
      8 OE1        11.4182   20.9168    4.5593 O.co2       1 MOL      -0.5690
      9 OE2        13.5964   21.1324    5.3054 O.co2       1 MOL      -0.5690
     10 N          12.1603   24.1302    6.3377 N.am        1 MOL      -0.2595
     11 CA         11.5302   24.1705    7.6254 C.3         1 MOL       0.1424
     12 C          11.9836   22.9799    8.3319 C.2         1 MOL       0.2051
     13 O          11.4938   21.8997    8.0276 O.2         1 MOL      -0.3943
     14 CB          9.9682   24.3082    7.5763 C.3         1 MOL       0.0406
     15 CG          9.3034   23.6644    6.4208 C.2         1 MOL       0.0393
     16 OD1         9.4753   22.3548    6.1423 O.co2       1 MOL      -0.5688
     17 OD2         8.4881   24.3812    5.6142 O.co2       1 MOL      -0.5688
     18 N          12.9718   23.0524    9.2161 N.am        1 MOL      -0.2694
     19 CA         13.4910   21.9750   10.0120 C.3         1 MOL       0.0946
     20 C          14.3586   22.4990   11.0858 C.2         1 MOL       0.0601
     21 O          15.0220   23.6701   10.9563 O.co2       1 MOL      -0.5666
     22 CB         14.1854   20.8267    9.2085 C.3         1 MOL      -0.0156
     23 CG         15.6533   21.0074    8.6988 C.3         1 MOL      -0.0431
     24 CD1        16.0693   19.7678    7.8562 C.3         1 MOL      -0.0625
     25 CD2        15.8974   22.3033    7.8794 C.3         1 MOL      -0.0625
     26 OXT        14.4287   21.8588   12.2722 O.co2       1 MOL      -0.5666
     27 H1         14.8257   24.6852    3.6149 H           1 MOL       0.2015
     28 H2         14.4578   23.8165    4.9929 H           1 MOL       0.2015
     29 H3         14.6278   25.4777    5.0507 H           1 MOL       0.2015
     30 H4         12.8326   25.7988    3.5939 H           1 MOL       0.1099
     31 H5         12.3543   24.0958    2.2200 H           1 MOL       0.0363
     32 H6         11.2062   23.6406    3.4459 H           1 MOL       0.0363
     33 H7         14.0227   22.4343    3.1737 H           1 MOL       0.0434
     34 H8         12.5923   21.7757    2.4056 H           1 MOL       0.0434
     35 H9         12.6759   23.3325    6.1378 H           1 MOL       0.1886
     36 H10        11.9153   25.0524    8.1501 H           1 MOL       0.0819
     37 H11         9.7105   25.3716    7.5641 H           1 MOL       0.0478
     38 H12         9.5301   23.9017    8.4895 H           1 MOL       0.0478
     39 H13        13.3233   23.9379    9.3961 H           1 MOL       0.1875
     40 H14        12.6261   21.5380   10.5223 H           1 MOL       0.0726
     41 H15        13.5558   20.5735    8.3553 H           1 MOL       0.0308
     42 H16        14.1829   19.9449    9.8583 H           1 MOL       0.0308
     43 H17        16.3126   21.0416    9.5731 H           1 MOL       0.0297
     44 H18        17.1154   19.8383    7.5562 H           1 MOL       0.0232
     45 H19        15.4561   19.6933    6.9562 H           1 MOL       0.0232
     46 H20        15.9433   18.8505    8.4330 H           1 MOL       0.0232
     47 H21        15.6951   23.1926    8.4730 H           1 MOL       0.0232
     48 H22        15.2677   22.3265    6.9933 H           1 MOL       0.0232
     49 H23        16.9382   22.3528    7.5569 H           1 MOL       0.0232
@<TRIPOS>BOND
     1     3     2   1
     2     2     5   1
     3     2     1   1
     4     5     6   1
     5     6     7   1
     6     7     8  ar
     7     7     9  ar
     8     3     4   2
     9    12    11   1
    10    11    14   1
    11    11    10   1
    12    14    15   1
    13    15    16  ar
    14    15    17  ar
    15    12    13   2
    16    19    20   1
    17    19    22   1
    18    18    19   1
    19    22    23   1
    20    23    25   1
    21    23    24   1
    22    20    26  ar
    23    20    21  ar
    24    10     3  am
    25    12    18  am
    26     1    27   1
    27     1    28   1
    28     1    29   1
    29     2    30   1
    30     5    31   1
    31     5    32   1
    32     6    33   1
    33     6    34   1
    34    10    35   1
    35    11    36   1
    36    14    37   1
    37    14    38   1
    38    18    39   1
    39    19    40   1
    40    22    41   1
    41    22    42   1
    42    23    43   1
    43    24    44   1
    44    24    45   1
    45    24    46   1
    46    25    47   1
    47    25    48   1
    48    25    49   1
@<TRIPOS>SUBSTRUCTURE
     1  MOL      2

