@<TRIPOS>MOLECULE
1a30_ligand_081
    49    48
SMALL
GAST_HUCK
****
This file was generated by PARSER (from files_GN.cpp)

@<TRIPOS>ATOM
      1 N          15.0350   24.3469    4.4183 N.4         1 MOL       0.2380
      2 CA         13.5700   24.2015    4.3127 C.3         1 MOL       0.0665
      3 C          12.9974   24.5323    5.6060 C.2         1 MOL       0.2269
      4 O          12.4386   25.6113    5.7671 O.2         1 MOL      -0.3907
      5 CB         13.1060   22.7935    3.7597 C.3         1 MOL       0.0194
      6 CG         14.1716   21.6603    3.7803 C.3         1 MOL       0.0075
      7 CD         13.5608   20.3200    3.8045 C.2         1 MOL       0.0351
      8 OE1        13.6824   19.4728    2.7524 O.co2       1 MOL      -0.5690
      9 OE2        13.0752   19.8333    4.9805 O.co2       1 MOL      -0.5690
     10 N          13.0751   23.6400    6.5856 N.am        1 MOL      -0.2595
     11 CA         12.5400   23.7468    7.9120 C.3         1 MOL       0.1424
     12 C          13.1420   22.7332    8.7758 C.2         1 MOL       0.2051
     13 O          12.4770   22.1790    9.6531 O.2         1 MOL      -0.3943
     14 CB         10.9708   23.7595    7.8803 C.3         1 MOL       0.0406
     15 CG         10.3521   22.9209    6.8159 C.2         1 MOL       0.0393
     16 OD1        10.5910   21.5920    6.7225 O.co2       1 MOL      -0.5688
     17 OD2         9.6496   23.5204    5.8260 O.co2       1 MOL      -0.5688
     18 N          14.4426   22.4698    8.6705 N.am        1 MOL      -0.2694
     19 CA         15.2943   21.6422    9.4847 C.3         1 MOL       0.0946
     20 C          16.6305   21.7179    8.8644 C.2         1 MOL       0.0601
     21 O          16.9458   20.9181    7.8086 O.co2       1 MOL      -0.5666
     22 CB         14.7913   20.1711    9.7124 C.3         1 MOL      -0.0156
     23 CG         15.7284   19.1183   10.4218 C.3         1 MOL      -0.0431
     24 CD1        16.4492   18.1542    9.4352 C.3         1 MOL      -0.0625
     25 CD2        16.7481   19.7430   11.4224 C.3         1 MOL      -0.0625
     26 OXT        17.4457   22.7700    9.1219 O.co2       1 MOL      -0.5666
     27 H1         15.4601   24.1272    3.5169 H           1 MOL       0.2015
     28 H2         15.4080   23.7227    5.1354 H           1 MOL       0.2015
     29 H3         15.2588   25.3181    4.6691 H           1 MOL       0.2015
     30 H4         13.2548   24.9580    3.5845 H           1 MOL       0.1099
     31 H5         12.7886   22.9278    2.7193 H           1 MOL       0.0363
     32 H6         12.2099   22.4771    4.3123 H           1 MOL       0.0363
     33 H7         14.8384   21.7544    4.6509 H           1 MOL       0.0434
     34 H8         14.7923   21.7595    2.8718 H           1 MOL       0.0434
     35 H9         13.5476   22.8181    6.3756 H           1 MOL       0.1886
     36 H10        12.8649   24.7076    8.3302 H           1 MOL       0.0819
     37 H11        10.6416   24.7907    7.7349 H           1 MOL       0.0478
     38 H12        10.5722   23.4486    8.8466 H           1 MOL       0.0478
     39 H13        14.8903   22.9520    7.9482 H           1 MOL       0.1875
     40 H14        15.3457   22.1310   10.4626 H           1 MOL       0.0726
     41 H15        14.4589   19.7729    8.7470 H           1 MOL       0.0308
     42 H16        13.8877   20.2547   10.3295 H           1 MOL       0.0308
     43 H17        15.0655   18.4804   11.0201 H           1 MOL       0.0297
     44 H18        16.9323   17.3438   10.0061 H           1 MOL       0.0232
     45 H19        17.2150   18.6872    8.8473 H           1 MOL       0.0232
     46 H20        15.7113   17.7033    8.7534 H           1 MOL       0.0232
     47 H21        16.2459   20.4738   12.0759 H           1 MOL       0.0232
     48 H22        17.5573   20.2393   10.8678 H           1 MOL       0.0232
     49 H23        17.1829   18.9475   12.0449 H           1 MOL       0.0232
@<TRIPOS>BOND
     1     3     2   1
     2     2     5   1
     3     2     1   1
     4     5     6   1
     5     6     7   1
     6     7     8  ar
     7     7     9  ar
     8     3     4   2
     9    12    11   1
    10    11    14   1
    11    11    10   1
    12    14    15   1
    13    15    16  ar
    14    15    17  ar
    15    12    13   2
    16    19    20   1
    17    19    22   1
    18    18    19   1
    19    22    23   1
    20    23    25   1
    21    23    24   1
    22    20    26  ar
    23    20    21  ar
    24    10     3  am
    25    12    18  am
    26     1    27   1
    27     1    28   1
    28     1    29   1
    29     2    30   1
    30     5    31   1
    31     5    32   1
    32     6    33   1
    33     6    34   1
    34    10    35   1
    35    11    36   1
    36    14    37   1
    37    14    38   1
    38    18    39   1
    39    19    40   1
    40    22    41   1
    41    22    42   1
    42    23    43   1
    43    24    44   1
    44    24    45   1
    45    24    46   1
    46    25    47   1
    47    25    48   1
    48    25    49   1
@<TRIPOS>SUBSTRUCTURE
     1  MOL      2

