@<TRIPOS>MOLECULE
1a30_ligand_026
    49    48
SMALL
GAST_HUCK
****
This file was generated by PARSER (from files_GN.cpp)

@<TRIPOS>ATOM
      1 N          15.1397   23.3252    6.2982 N.4         1 MOL       0.2380
      2 CA         15.0025   22.6994    7.6261 C.3         1 MOL       0.0665
      3 C          16.1777   21.8811    7.9040 C.2         1 MOL       0.2269
      4 O          16.8949   22.1867    8.8475 O.2         1 MOL      -0.3907
      5 CB         13.6829   21.8735    7.7650 C.3         1 MOL       0.0194
      6 CG         12.3717   22.6959    7.5701 C.3         1 MOL       0.0075
      7 CD         11.6022   22.2997    6.3726 C.2         1 MOL       0.0351
      8 OE1        11.4954   23.1258    5.3087 O.co2       1 MOL      -0.5690
      9 OE2        10.8736   21.1627    6.3879 O.co2       1 MOL      -0.5690
     10 N          16.4504   20.8346    7.1383 N.am        1 MOL      -0.2595
     11 CA         17.5726   19.9437    7.2700 C.3         1 MOL       0.1424
     12 C          17.8031   19.3107    5.9707 C.2         1 MOL       0.2051
     13 O          18.7437   19.7160    5.3052 O.2         1 MOL      -0.3943
     14 CB         17.3505   18.9528    8.4555 C.3         1 MOL       0.0406
     15 CG         18.4249   17.9499    8.6175 C.2         1 MOL       0.0393
     16 OD1        18.1267   16.6351    8.7238 O.co2       1 MOL      -0.5688
     17 OD2        19.7177   18.3230    8.6836 O.co2       1 MOL      -0.5688
     18 N          17.0003   18.3402    5.5341 N.am        1 MOL      -0.2694
     19 CA         17.0203   17.5410    4.3360 C.3         1 MOL       0.0946
     20 C          17.9306   17.9708    3.2344 C.2         1 MOL       0.0601
     21 O          17.5191   18.1243    1.9614 O.co2       1 MOL      -0.5666
     22 CB         15.5556   17.2176    3.8733 C.3         1 MOL      -0.0156
     23 CG         14.5060   18.3681    3.6647 C.3         1 MOL      -0.0431
     24 CD1        13.7764   18.7828    4.9727 C.3         1 MOL      -0.0625
     25 CD2        15.0395   19.6222    2.9181 C.3         1 MOL      -0.0625
     26 OXT        19.2675   17.8818    3.4018 O.co2       1 MOL      -0.5666
     27 H1         14.3634   23.9685    6.1403 H           1 MOL       0.2015
     28 H2         15.1434   22.6140    5.5677 H           1 MOL       0.2015
     29 H3         16.0173   23.8516    6.2617 H           1 MOL       0.2015
     30 H4         14.9470   23.5213    8.3486 H           1 MOL       0.1099
     31 H5         13.6690   21.4429    8.7654 H           1 MOL       0.0363
     32 H6         13.7021   21.0296    7.0649 H           1 MOL       0.0363
     33 H7         12.5927   23.7664    7.5204 H           1 MOL       0.0434
     34 H8         11.7177   22.5514    8.4336 H           1 MOL       0.0434
     35 H9         15.8639   20.6875    6.3847 H           1 MOL       0.1886
     36 H10        18.4526   20.5510    7.5258 H           1 MOL       0.0819
     37 H11        16.3963   18.4326    8.3328 H           1 MOL       0.0478
     38 H12        17.2880   19.5165    9.3894 H           1 MOL       0.0478
     39 H13        16.3159   18.0827    6.1634 H           1 MOL       0.1875
     40 H14        17.4333   16.5803    4.6621 H           1 MOL       0.0726
     41 H15        15.1336   16.5191    4.6026 H           1 MOL       0.0308
     42 H16        15.6122   16.6418    2.9462 H           1 MOL       0.0308
     43 H17        13.7234   17.9491    3.0229 H           1 MOL       0.0297
     44 H18        13.0016   19.5186    4.7571 H           1 MOL       0.0232
     45 H19        14.4692   19.2179    5.6882 H           1 MOL       0.0232
     46 H20        13.2990   17.9185    5.4320 H           1 MOL       0.0232
     47 H21        15.3836   19.3522    1.9228 H           1 MOL       0.0232
     48 H22        15.8575   20.0871    3.4679 H           1 MOL       0.0232
     49 H23        14.2444   20.3599    2.8023 H           1 MOL       0.0232
@<TRIPOS>BOND
     1     3     2   1
     2     2     5   1
     3     2     1   1
     4     5     6   1
     5     6     7   1
     6     7     8  ar
     7     7     9  ar
     8     3     4   2
     9    12    11   1
    10    11    14   1
    11    11    10   1
    12    14    15   1
    13    15    16  ar
    14    15    17  ar
    15    12    13   2
    16    19    20   1
    17    19    22   1
    18    18    19   1
    19    22    23   1
    20    23    25   1
    21    23    24   1
    22    20    26  ar
    23    20    21  ar
    24    10     3  am
    25    12    18  am
    26     1    27   1
    27     1    28   1
    28     1    29   1
    29     2    30   1
    30     5    31   1
    31     5    32   1
    32     6    33   1
    33     6    34   1
    34    10    35   1
    35    11    36   1
    36    14    37   1
    37    14    38   1
    38    18    39   1
    39    19    40   1
    40    22    41   1
    41    22    42   1
    42    23    43   1
    43    24    44   1
    44    24    45   1
    45    24    46   1
    46    25    47   1
    47    25    48   1
    48    25    49   1
@<TRIPOS>SUBSTRUCTURE
     1  MOL      2

