@<TRIPOS>MOLECULE
1a30_ligand_089
    49    48
SMALL
GAST_HUCK
****
This file was generated by PARSER (from files_GN.cpp)

@<TRIPOS>ATOM
      1 N          15.2703   18.1151    2.3889 N.4         1 MOL       0.2380
      2 CA         14.7917   18.7813    3.6144 C.3         1 MOL       0.0665
      3 C          14.4979   20.1899    3.3911 C.2         1 MOL       0.2269
      4 O          15.2549   20.8754    2.7042 O.2         1 MOL      -0.3907
      5 CB         15.7905   18.5714    4.7908 C.3         1 MOL       0.0194
      6 CG         17.1957   19.2496    4.6425 C.3         1 MOL       0.0075
      7 CD         18.2782   18.2806    4.3706 C.2         1 MOL       0.0351
      8 OE1        19.0023   17.7951    5.4080 O.co2       1 MOL      -0.5690
      9 OE2        18.8287   18.2314    3.1374 O.co2       1 MOL      -0.5690
     10 N          13.4461   20.7335    3.9998 N.am        1 MOL      -0.2595
     11 CA         12.9927   22.1016    3.9433 C.3         1 MOL       0.1424
     12 C          12.9303   22.6746    5.2900 C.2         1 MOL       0.2051
     13 O          12.7331   23.8774    5.4053 O.2         1 MOL      -0.3943
     14 CB         11.6565   22.1629    3.1192 C.3         1 MOL       0.0406
     15 CG         10.4766   22.7352    3.7823 C.2         1 MOL       0.0393
     16 OD1         9.9836   22.1174    4.8796 O.co2       1 MOL      -0.5688
     17 OD2        10.2048   24.0496    3.6317 O.co2       1 MOL      -0.5688
     18 N          13.0103   21.9130    6.3732 N.am        1 MOL      -0.2694
     19 CA         12.9840   22.3231    7.7541 C.3         1 MOL       0.0946
     20 C          11.8005   23.1916    8.0230 C.2         1 MOL       0.0601
     21 O          11.8120   24.1993    8.9330 O.co2       1 MOL      -0.5666
     22 CB         14.3767   22.9009    8.2033 C.3         1 MOL      -0.0156
     23 CG         14.8861   22.5064    9.6277 C.3         1 MOL      -0.0431
     24 CD1        13.8719   22.8295   10.7637 C.3         1 MOL      -0.0625
     25 CD2        15.3632   21.0247    9.7041 C.3         1 MOL      -0.0625
     26 OXT        10.6507   22.9713    7.3314 O.co2       1 MOL      -0.5666
     27 H1         15.4155   17.1169    2.5757 H           1 MOL       0.2015
     28 H2         16.1533   18.5405    2.0854 H           1 MOL       0.2015
     29 H3         14.5667   18.2231    1.6473 H           1 MOL       0.2015
     30 H4         13.8564   18.2706    3.8772 H           1 MOL       0.1099
     31 H5         15.9160   17.4864    4.9349 H           1 MOL       0.0363
     32 H6         15.3145   18.9468    5.7057 H           1 MOL       0.0363
     33 H7         17.4210   19.7805    5.5790 H           1 MOL       0.0434
     34 H8         17.1747   20.0037    3.8482 H           1 MOL       0.0434
     35 H9         12.8870   20.1262    4.5129 H           1 MOL       0.1886
     36 H10        13.7286   22.6991    3.3961 H           1 MOL       0.0819
     37 H11        11.3696   21.1642    2.7757 H           1 MOL       0.0478
     38 H12        11.8310   22.7451    2.2075 H           1 MOL       0.0478
     39 H13        13.1097   20.9535    6.2367 H           1 MOL       0.1875
     40 H14        12.8044   21.4018    8.3162 H           1 MOL       0.0726
     41 H15        14.3623   23.9937    8.1336 H           1 MOL       0.0308
     42 H16        15.1491   22.5726    7.5005 H           1 MOL       0.0308
     43 H17        15.7732   23.1242    9.8243 H           1 MOL       0.0297
     44 H18        14.3373   22.6684   11.7449 H           1 MOL       0.0232
     45 H19        12.9892   22.1936   10.6922 H           1 MOL       0.0232
     46 H20        13.5610   23.8804   10.7074 H           1 MOL       0.0232
     47 H21        16.1500   20.8497    8.9612 H           1 MOL       0.0232
     48 H22        14.5391   20.3292    9.5144 H           1 MOL       0.0232
     49 H23        15.7800   20.8101   10.6974 H           1 MOL       0.0232
@<TRIPOS>BOND
     1     3     2   1
     2     2     5   1
     3     2     1   1
     4     5     6   1
     5     6     7   1
     6     7     8  ar
     7     7     9  ar
     8     3     4   2
     9    12    11   1
    10    11    14   1
    11    11    10   1
    12    14    15   1
    13    15    16  ar
    14    15    17  ar
    15    12    13   2
    16    19    20   1
    17    19    22   1
    18    18    19   1
    19    22    23   1
    20    23    25   1
    21    23    24   1
    22    20    26  ar
    23    20    21  ar
    24    10     3  am
    25    12    18  am
    26     1    27   1
    27     1    28   1
    28     1    29   1
    29     2    30   1
    30     5    31   1
    31     5    32   1
    32     6    33   1
    33     6    34   1
    34    10    35   1
    35    11    36   1
    36    14    37   1
    37    14    38   1
    38    18    39   1
    39    19    40   1
    40    22    41   1
    41    22    42   1
    42    23    43   1
    43    24    44   1
    44    24    45   1
    45    24    46   1
    46    25    47   1
    47    25    48   1
    48    25    49   1
@<TRIPOS>SUBSTRUCTURE
     1  MOL      2

