@<TRIPOS>MOLECULE
1a30_ligand_035
    49    48
SMALL
GAST_HUCK
****
This file was generated by PARSER (from files_GN.cpp)

@<TRIPOS>ATOM
      1 N          13.6813   25.2837    4.5611 N.4         1 MOL       0.2380
      2 CA         12.5783   24.3060    4.6311 C.3         1 MOL       0.0665
      3 C          13.1023   23.0362    5.1044 C.2         1 MOL       0.2269
      4 O          12.6909   22.5665    6.1628 O.2         1 MOL      -0.3907
      5 CB         11.8308   24.2125    3.2628 C.3         1 MOL       0.0194
      6 CG         10.3026   23.9184    3.3384 C.3         1 MOL       0.0075
      7 CD          9.9393   22.5281    3.6842 C.2         1 MOL       0.0351
      8 OE1         8.8551   21.9485    3.1113 O.co2       1 MOL      -0.5690
      9 OE2        10.4624   21.9399    4.7834 O.co2       1 MOL      -0.5690
     10 N          14.0868   22.4415    4.4437 N.am        1 MOL      -0.2595
     11 CA         14.7622   21.2222    4.8064 C.3         1 MOL       0.1424
     12 C          15.7421   21.5174    5.8525 C.2         1 MOL       0.2051
     13 O          16.9331   21.2573    5.6626 O.2         1 MOL      -0.3943
     14 CB         15.3148   20.5710    3.4991 C.3         1 MOL       0.0406
     15 CG         16.2593   19.4522    3.7037 C.2         1 MOL       0.0393
     16 OD1        17.5903   19.6876    3.7529 O.co2       1 MOL      -0.5688
     17 OD2        15.8521   18.1817    3.4444 O.co2       1 MOL      -0.5688
     18 N          15.3549   22.1391    6.9643 N.am        1 MOL      -0.2694
     19 CA         16.2216   22.6874    7.9701 C.3         1 MOL       0.0946
     20 C          17.3374   21.8017    8.3854 C.2         1 MOL       0.0601
     21 O          17.2952   20.4559    8.2084 O.co2       1 MOL      -0.5666
     22 CB         15.4171   23.2233    9.2020 C.3         1 MOL      -0.0156
     23 CG         14.5729   22.2560   10.1185 C.3         1 MOL      -0.0431
     24 CD1        13.0454   22.3509    9.8401 C.3         1 MOL      -0.0625
     25 CD2        15.0178   20.7648   10.1506 C.3         1 MOL      -0.0625
     26 OXT        18.4716   22.3371    8.9037 O.co2       1 MOL      -0.5666
     27 H1         13.2886   26.2032    4.3646 H           1 MOL       0.2015
     28 H2         14.3358   25.0395    3.8127 H           1 MOL       0.2015
     29 H3         14.1792   25.3254    5.4561 H           1 MOL       0.2015
     30 H4         11.8856   24.7087    5.3709 H           1 MOL       0.1099
     31 H5         12.3084   23.4777    2.6041 H           1 MOL       0.0363
     32 H6         11.9312   25.1830    2.7656 H           1 MOL       0.0363
     33 H7          9.8681   24.1575    2.3633 H           1 MOL       0.0434
     34 H8          9.8357   24.5937    4.0649 H           1 MOL       0.0434
     35 H9         14.3914   22.8641    3.6157 H           1 MOL       0.1886
     36 H10        14.0403   20.5017    5.2141 H           1 MOL       0.0819
     37 H11        15.8035   21.3326    2.8813 H           1 MOL       0.0478
     38 H12        14.4650   20.1941    2.9155 H           1 MOL       0.0478
     39 H13        14.4001   22.3080    7.0627 H           1 MOL       0.1875
     40 H14        16.6939   23.5734    7.5263 H           1 MOL       0.0726
     41 H15        14.7641   24.0195    8.8334 H           1 MOL       0.0308
     42 H16        16.1306   23.7408    9.8517 H           1 MOL       0.0308
     43 H17        14.6906   22.6144   11.1513 H           1 MOL       0.0297
     44 H18        12.4922   21.7697   10.5845 H           1 MOL       0.0232
     45 H19        12.8063   21.9647    8.8470 H           1 MOL       0.0232
     46 H20        12.7088   23.3923    9.9111 H           1 MOL       0.0232
     47 H21        16.0573   20.6889   10.4794 H           1 MOL       0.0232
     48 H22        14.9174   20.3134    9.1641 H           1 MOL       0.0232
     49 H23        14.3898   20.1910   10.8472 H           1 MOL       0.0232
@<TRIPOS>BOND
     1     3     2   1
     2     2     5   1
     3     2     1   1
     4     5     6   1
     5     6     7   1
     6     7     8  ar
     7     7     9  ar
     8     3     4   2
     9    12    11   1
    10    11    14   1
    11    11    10   1
    12    14    15   1
    13    15    16  ar
    14    15    17  ar
    15    12    13   2
    16    19    20   1
    17    19    22   1
    18    18    19   1
    19    22    23   1
    20    23    25   1
    21    23    24   1
    22    20    26  ar
    23    20    21  ar
    24    10     3  am
    25    12    18  am
    26     1    27   1
    27     1    28   1
    28     1    29   1
    29     2    30   1
    30     5    31   1
    31     5    32   1
    32     6    33   1
    33     6    34   1
    34    10    35   1
    35    11    36   1
    36    14    37   1
    37    14    38   1
    38    18    39   1
    39    19    40   1
    40    22    41   1
    41    22    42   1
    42    23    43   1
    43    24    44   1
    44    24    45   1
    45    24    46   1
    46    25    47   1
    47    25    48   1
    48    25    49   1
@<TRIPOS>SUBSTRUCTURE
     1  MOL      2

