@<TRIPOS>MOLECULE
1a30_ligand_080
    49    48
SMALL
GAST_HUCK
****
This file was generated by PARSER (from files_GN.cpp)

@<TRIPOS>ATOM
      1 N          12.1704   26.0240    7.3988 N.4         1 MOL       0.2380
      2 CA         11.7702   24.7836    8.0871 C.3         1 MOL       0.0665
      3 C          12.1019   23.6352    7.2491 C.2         1 MOL       0.2269
      4 O          11.3306   22.6886    7.1666 O.2         1 MOL      -0.3907
      5 CB         10.2899   24.8837    8.5938 C.3         1 MOL       0.0194
      6 CG          9.2770   25.5486    7.6078 C.3         1 MOL       0.0075
      7 CD          7.8794   25.5648    8.0993 C.2         1 MOL       0.0351
      8 OE1         7.3690   24.4943    8.7730 O.co2       1 MOL      -0.5690
      9 OE2         6.9932   26.3993    7.5041 O.co2       1 MOL      -0.5690
     10 N          13.3050   23.5782    6.6891 N.am        1 MOL      -0.2595
     11 CA         13.9192   22.4980    5.9517 C.3         1 MOL       0.1424
     12 C          13.7079   22.5590    4.5053 C.2         1 MOL       0.2051
     13 O          14.5713   22.0738    3.7790 O.2         1 MOL      -0.3943
     14 CB         13.7135   21.0690    6.5724 C.3         1 MOL       0.0406
     15 CG         12.7236   20.1939    5.9011 C.2         1 MOL       0.0393
     16 OD1        11.3994   20.3294    6.1524 O.co2       1 MOL      -0.5688
     17 OD2        13.0931   19.4998    4.7983 O.co2       1 MOL      -0.5688
     18 N          12.5471   22.9638    3.9960 N.am        1 MOL      -0.2694
     19 CA         12.1410   22.9662    2.6120 C.3         1 MOL       0.0946
     20 C          11.9811   24.3471    2.1013 C.2         1 MOL       0.0601
     21 O          11.3622   24.5639    0.9129 O.co2       1 MOL      -0.5666
     22 CB         10.8659   22.0853    2.4053 C.3         1 MOL      -0.0156
     23 CG          9.4527   22.7214    2.6654 C.3         1 MOL      -0.0431
     24 CD1         8.3246   21.6889    2.3699 C.3         1 MOL      -0.0625
     25 CD2         9.2795   23.3032    4.0968 C.3         1 MOL      -0.0625
     26 OXT        12.5680   25.4036    2.7056 O.co2       1 MOL      -0.5666
     27 H1         11.8533   26.8321    7.9389 H           1 MOL       0.2015
     28 H2         11.7486   26.0549    6.4652 H           1 MOL       0.2015
     29 H3         13.1922   26.0537    7.3135 H           1 MOL       0.2015
     30 H4         12.3957   24.7025    8.9843 H           1 MOL       0.1099
     31 H5         10.2866   25.4643    9.5262 H           1 MOL       0.0363
     32 H6          9.9417   23.8782    8.8460 H           1 MOL       0.0363
     33 H7          9.2954   25.0250    6.6444 H           1 MOL       0.0434
     34 H8          9.5928   26.5897    7.4443 H           1 MOL       0.0434
     35 H9         13.8692   24.3666    6.8082 H           1 MOL       0.1886
     36 H10        14.9797   22.7197    6.0979 H           1 MOL       0.0819
     37 H11        13.4410   21.1577    7.6232 H           1 MOL       0.0478
     38 H12        14.6666   20.5296    6.5547 H           1 MOL       0.0478
     39 H13        11.8948   23.2991    4.6244 H           1 MOL       0.1875
     40 H14        12.9230   22.5131    1.9989 H           1 MOL       0.0726
     41 H15        10.9604   21.1874    3.0240 H           1 MOL       0.0308
     42 H16        10.8680   21.7443    1.3603 H           1 MOL       0.0308
     43 H17         9.3163   23.5477    1.9548 H           1 MOL       0.0297
     44 H18         7.3445   22.1757    2.4364 H           1 MOL       0.0232
     45 H19         8.3607   20.8645    3.0881 H           1 MOL       0.0232
     46 H20         8.4330   21.2801    1.3560 H           1 MOL       0.0232
     47 H21         9.9504   24.1506    4.2411 H           1 MOL       0.0232
     48 H22         9.4968   22.5360    4.8418 H           1 MOL       0.0232
     49 H23         8.2554   23.6571    4.2448 H           1 MOL       0.0232
@<TRIPOS>BOND
     1     3     2   1
     2     2     5   1
     3     2     1   1
     4     5     6   1
     5     6     7   1
     6     7     8  ar
     7     7     9  ar
     8     3     4   2
     9    12    11   1
    10    11    14   1
    11    11    10   1
    12    14    15   1
    13    15    16  ar
    14    15    17  ar
    15    12    13   2
    16    19    20   1
    17    19    22   1
    18    18    19   1
    19    22    23   1
    20    23    25   1
    21    23    24   1
    22    20    26  ar
    23    20    21  ar
    24    10     3  am
    25    12    18  am
    26     1    27   1
    27     1    28   1
    28     1    29   1
    29     2    30   1
    30     5    31   1
    31     5    32   1
    32     6    33   1
    33     6    34   1
    34    10    35   1
    35    11    36   1
    36    14    37   1
    37    14    38   1
    38    18    39   1
    39    19    40   1
    40    22    41   1
    41    22    42   1
    42    23    43   1
    43    24    44   1
    44    24    45   1
    45    24    46   1
    46    25    47   1
    47    25    48   1
    48    25    49   1
@<TRIPOS>SUBSTRUCTURE
     1  MOL      2

