@<TRIPOS>MOLECULE
1a30_ligand_021
    49    48
SMALL
GAST_HUCK
****
This file was generated by PARSER (from files_GN.cpp)

@<TRIPOS>ATOM
      1 N          12.1511   25.9712    6.3112 N.4         1 MOL       0.2380
      2 CA         11.9086   24.5265    6.1703 C.3         1 MOL       0.0665
      3 C          12.3845   23.8266    7.3541 C.2         1 MOL       0.2269
      4 O          11.6273   23.0426    7.9118 O.2         1 MOL      -0.3907
      5 CB         12.5385   23.9951    4.8389 C.3         1 MOL       0.0194
      6 CG         12.8210   22.4665    4.7573 C.3         1 MOL       0.0075
      7 CD         11.6326   21.6191    4.9939 C.2         1 MOL       0.0351
      8 OE1        11.4359   21.0132    6.1897 O.co2       1 MOL      -0.5690
      9 OE2        10.7142   21.4349    4.0092 O.co2       1 MOL      -0.5690
     10 N          13.6353   23.9972    7.7790 N.am        1 MOL      -0.2595
     11 CA         14.3313   23.2346    8.7895 C.3         1 MOL       0.1424
     12 C          14.5677   21.8566    8.3303 C.2         1 MOL       0.2051
     13 O          13.6634   21.2598    7.7518 O.2         1 MOL      -0.3943
     14 CB         13.6984   23.3803   10.2197 C.3         1 MOL       0.0406
     15 CG         13.6733   22.1629   11.0581 C.2         1 MOL       0.0393
     16 OD1        12.8946   21.1112   10.7046 O.co2       1 MOL      -0.5688
     17 OD2        14.3721   22.0835   12.2099 O.co2       1 MOL      -0.5688
     18 N          15.6988   21.2284    8.6493 N.am        1 MOL      -0.2694
     19 CA         16.0625   19.8714    8.3418 C.3         1 MOL       0.0946
     20 C          16.3515   19.0818    9.5647 C.2         1 MOL       0.0601
     21 O          16.6453   19.6766   10.7492 O.co2       1 MOL      -0.5666
     22 CB         17.2445   19.8416    7.3144 C.3         1 MOL      -0.0156
     23 CG         18.7208   19.9073    7.8363 C.3         1 MOL      -0.0431
     24 CD1        19.7255   19.8263    6.6466 C.3         1 MOL      -0.0625
     25 CD2        19.0277   21.1621    8.7043 C.3         1 MOL      -0.0625
     26 OXT        16.2589   17.7336    9.5324 O.co2       1 MOL      -0.5666
     27 H1         11.7563   26.4645    5.4990 H           1 MOL       0.2015
     28 H2         13.1613   26.1383    6.3627 H           1 MOL       0.2015
     29 H3         11.6971   26.3093    7.1670 H           1 MOL       0.2015
     30 H4         10.8251   24.4000    6.0865 H           1 MOL       0.1099
     31 H5         13.4866   24.5195    4.6615 H           1 MOL       0.0363
     32 H6         11.8676   24.2694    4.0143 H           1 MOL       0.0363
     33 H7         13.5932   22.2139    5.4901 H           1 MOL       0.0434
     34 H8         13.2159   22.2325    3.7667 H           1 MOL       0.0434
     35 H9         14.1608   24.6958    7.3431 H           1 MOL       0.1886
     36 H10        15.3144   23.7167    8.8532 H           1 MOL       0.0819
     37 H11        12.6736   23.7390   10.1675 H           1 MOL       0.0478
     38 H12        14.2425   24.1493   10.7740 H           1 MOL       0.0478
     39 H13        16.3366   21.7352    9.1762 H           1 MOL       0.1875
     40 H14        15.2278   19.3615    7.8605 H           1 MOL       0.0726
     41 H15        17.0946   20.6642    6.5997 H           1 MOL       0.0308
     42 H16        17.1543   18.9103    6.7414 H           1 MOL       0.0308
     43 H17        18.9076   19.0288    8.4600 H           1 MOL       0.0297
     44 H18        20.7531   19.7618    7.0170 H           1 MOL       0.0232
     45 H19        19.6399   20.7115    6.0040 H           1 MOL       0.0232
     46 H20        19.5299   18.9353    6.0407 H           1 MOL       0.0232
     47 H21        18.4606   21.1241    9.6373 H           1 MOL       0.0232
     48 H22        18.7653   22.0789    8.1633 H           1 MOL       0.0232
     49 H23        20.0888   21.2010    8.9669 H           1 MOL       0.0232
@<TRIPOS>BOND
     1     3     2   1
     2     2     5   1
     3     2     1   1
     4     5     6   1
     5     6     7   1
     6     7     8  ar
     7     7     9  ar
     8     3     4   2
     9    12    11   1
    10    11    14   1
    11    11    10   1
    12    14    15   1
    13    15    16  ar
    14    15    17  ar
    15    12    13   2
    16    19    20   1
    17    19    22   1
    18    18    19   1
    19    22    23   1
    20    23    25   1
    21    23    24   1
    22    20    26  ar
    23    20    21  ar
    24    10     3  am
    25    12    18  am
    26     1    27   1
    27     1    28   1
    28     1    29   1
    29     2    30   1
    30     5    31   1
    31     5    32   1
    32     6    33   1
    33     6    34   1
    34    10    35   1
    35    11    36   1
    36    14    37   1
    37    14    38   1
    38    18    39   1
    39    19    40   1
    40    22    41   1
    41    22    42   1
    42    23    43   1
    43    24    44   1
    44    24    45   1
    45    24    46   1
    46    25    47   1
    47    25    48   1
    48    25    49   1
@<TRIPOS>SUBSTRUCTURE
     1  MOL      2

