@<TRIPOS>MOLECULE
1a30_ligand_087
    49    48
SMALL
GAST_HUCK
****
This file was generated by PARSER (from files_GN.cpp)

@<TRIPOS>ATOM
      1 N          14.3161   24.8314    4.5268 N.4         1 MOL       0.2380
      2 CA         12.8668   25.0771    4.5380 C.3         1 MOL       0.0665
      3 C          12.3007   24.2545    5.5924 C.2         1 MOL       0.2269
      4 O          12.1210   23.0563    5.3745 O.2         1 MOL      -0.3907
      5 CB         12.2620   24.8607    3.1173 C.3         1 MOL       0.0194
      6 CG         10.7138   24.7475    3.0851 C.3         1 MOL       0.0075
      7 CD         10.1348   25.0055    1.7497 C.2         1 MOL       0.0351
      8 OE1        10.6643   24.4279    0.6459 O.co2       1 MOL      -0.5690
      9 OE2         8.9820   25.7137    1.6215 O.co2       1 MOL      -0.5690
     10 N          12.0258   24.8054    6.7730 N.am        1 MOL      -0.2595
     11 CA         11.4183   24.2014    7.9293 C.3         1 MOL       0.1424
     12 C          12.1892   23.1111    8.4843 C.2         1 MOL       0.2051
     13 O          11.8395   21.9318    8.2306 O.2         1 MOL      -0.3943
     14 CB          9.8784   23.9960    7.6982 C.3         1 MOL       0.0406
     15 CG          9.5061   23.0500    6.6256 C.2         1 MOL       0.0393
     16 OD1         8.6693   23.4417    5.6334 O.co2       1 MOL      -0.5688
     17 OD2         9.9326   21.7608    6.6217 O.co2       1 MOL      -0.5688
     18 N          13.3672   23.3038    9.0504 N.am        1 MOL      -0.2694
     19 CA         14.2087   22.3224    9.6802 C.3         1 MOL       0.0946
     20 C          14.5591   22.8442   11.0136 C.2         1 MOL       0.0601
     21 O          14.3939   22.0925   12.1243 O.co2       1 MOL      -0.5666
     22 CB         15.4892   21.9944    8.8229 C.3         1 MOL      -0.0156
     23 CG         15.5549   20.5838    8.1507 C.3         1 MOL      -0.0431
     24 CD1        15.4823   19.4042    9.1699 C.3         1 MOL      -0.0625
     25 CD2        14.5251   20.4104    7.0047 C.3         1 MOL      -0.0625
     26 OXT        15.2161   24.0240   11.1198 O.co2       1 MOL      -0.5666
     27 H1         14.7690   25.4695    3.8696 H           1 MOL       0.2015
     28 H2         14.5140   23.8634    4.2560 H           1 MOL       0.2015
     29 H3         14.6967   25.0134    5.4624 H           1 MOL       0.2015
     30 H4         12.7411   26.1374    4.7901 H           1 MOL       0.1099
     31 H5         12.6749   23.9483    2.6894 H           1 MOL       0.0363
     32 H6         12.5767   25.6987    2.4913 H           1 MOL       0.0363
     33 H7         10.2667   25.4400    3.8045 H           1 MOL       0.0434
     34 H8         10.4225   23.7311    3.3687 H           1 MOL       0.0434
     35 H9         12.2441   25.7542    6.8533 H           1 MOL       0.1886
     36 H10        11.4576   24.9884    8.6959 H           1 MOL       0.0819
     37 H11         9.4336   24.9727    7.4656 H           1 MOL       0.0478
     38 H12         9.4167   23.6612    8.6287 H           1 MOL       0.0478
     39 H13        13.6665   24.2318    9.0824 H           1 MOL       0.1875
     40 H14        13.6450   21.3997    9.8551 H           1 MOL       0.0726
     41 H15        16.3846   22.0807    9.4476 H           1 MOL       0.0308
     42 H16        15.6040   22.7552    8.0425 H           1 MOL       0.0308
     43 H17        16.5415   20.5217    7.6834 H           1 MOL       0.0297
     44 H18        15.8625   18.4912    8.7077 H           1 MOL       0.0232
     45 H19        14.4572   19.2135    9.4919 H           1 MOL       0.0232
     46 H20        16.0923   19.6204   10.0511 H           1 MOL       0.0232
     47 H21        14.6150   21.2324    6.2889 H           1 MOL       0.0232
     48 H22        13.5075   20.3920    7.3935 H           1 MOL       0.0232
     49 H23        14.7074   19.4742    6.4718 H           1 MOL       0.0232
@<TRIPOS>BOND
     1     3     2   1
     2     2     5   1
     3     2     1   1
     4     5     6   1
     5     6     7   1
     6     7     8  ar
     7     7     9  ar
     8     3     4   2
     9    12    11   1
    10    11    14   1
    11    11    10   1
    12    14    15   1
    13    15    16  ar
    14    15    17  ar
    15    12    13   2
    16    19    20   1
    17    19    22   1
    18    18    19   1
    19    22    23   1
    20    23    25   1
    21    23    24   1
    22    20    26  ar
    23    20    21  ar
    24    10     3  am
    25    12    18  am
    26     1    27   1
    27     1    28   1
    28     1    29   1
    29     2    30   1
    30     5    31   1
    31     5    32   1
    32     6    33   1
    33     6    34   1
    34    10    35   1
    35    11    36   1
    36    14    37   1
    37    14    38   1
    38    18    39   1
    39    19    40   1
    40    22    41   1
    41    22    42   1
    42    23    43   1
    43    24    44   1
    44    24    45   1
    45    24    46   1
    46    25    47   1
    47    25    48   1
    48    25    49   1
@<TRIPOS>SUBSTRUCTURE
     1  MOL      2

