@<TRIPOS>MOLECULE
1a30_ligand_094
    49    48
SMALL
GAST_HUCK
****
This file was generated by PARSER (from files_GN.cpp)

@<TRIPOS>ATOM
      1 N           7.5524   25.7611    9.3403 N.4         1 MOL       0.2380
      2 CA          8.4520   25.9576    8.1884 C.3         1 MOL       0.0665
      3 C           7.7698   26.7772    7.1940 C.2         1 MOL       0.2269
      4 O           8.2215   27.8838    6.9152 O.2         1 MOL      -0.3907
      5 CB          8.9229   24.5678    7.6626 C.3         1 MOL       0.0194
      6 CG          9.8581   24.5928    6.4223 C.3         1 MOL       0.0075
      7 CD         11.1520   25.2443    6.6850 C.2         1 MOL       0.0351
      8 OE1        11.5655   26.2903    5.9352 O.co2       1 MOL      -0.5690
      9 OE2        11.9971   24.7347    7.6104 O.co2       1 MOL      -0.5690
     10 N           6.6843   26.3099    6.5827 N.am        1 MOL      -0.2595
     11 CA          5.8434   26.9707    5.6154 C.3         1 MOL       0.1424
     12 C           6.6200   27.3151    4.4250 C.2         1 MOL       0.2051
     13 O           6.9948   28.4774    4.2823 O.2         1 MOL      -0.3943
     14 CB          5.0326   28.1505    6.2480 C.3         1 MOL       0.0406
     15 CG          4.1241   27.7779    7.3531 C.2         1 MOL       0.0393
     16 OD1         3.9891   26.5076    7.7976 O.co2       1 MOL      -0.5688
     17 OD2         3.3644   28.7345    7.9343 O.co2       1 MOL      -0.5688
     18 N           7.0533   26.3361    3.6386 N.am        1 MOL      -0.2694
     19 CA          7.9432   26.3765    2.5036 C.3         1 MOL       0.0946
     20 C           8.8037   27.5802    2.3675 C.2         1 MOL       0.0601
     21 O           9.5967   27.9469    3.3997 O.co2       1 MOL      -0.5666
     22 CB          7.1570   26.0013    1.2100 C.3         1 MOL      -0.0156
     23 CG          6.0032   26.9855    0.8043 C.3         1 MOL      -0.0431
     24 CD1         5.9703   27.2364   -0.7305 C.3         1 MOL      -0.0625
     25 CD2         4.6098   26.5121    1.3024 C.3         1 MOL      -0.0625
     26 OXT         8.8710   28.3214    1.2360 O.co2       1 MOL      -0.5666
     27 H1          8.0367   25.2308   10.0682 H           1 MOL       0.2015
     28 H2          6.7208   25.2443    9.0457 H           1 MOL       0.2015
     29 H3          7.2691   26.6685    9.7190 H           1 MOL       0.2015
     30 H4          9.3298   26.4920    8.5646 H           1 MOL       0.1099
     31 H5          8.0497   23.9686    7.4076 H           1 MOL       0.0363
     32 H6          9.4365   24.0465    8.4768 H           1 MOL       0.0363
     33 H7          9.3517   25.0913    5.5918 H           1 MOL       0.0434
     34 H8         10.0563   23.5625    6.1152 H           1 MOL       0.0434
     35 H9          6.4232   25.4033    6.8082 H           1 MOL       0.1886
     36 H10         5.0956   26.2370    5.2951 H           1 MOL       0.0819
     37 H11         4.4198   28.6104    5.4674 H           1 MOL       0.0478
     38 H12         5.7189   28.9148    6.6210 H           1 MOL       0.0478
     39 H13         6.7020   25.4512    3.8484 H           1 MOL       0.1875
     40 H14         8.6506   25.5616    2.6768 H           1 MOL       0.0726
     41 H15         6.7525   24.9931    1.3292 H           1 MOL       0.0308
     42 H16         7.8894   25.9267    0.3987 H           1 MOL       0.0308
     43 H17         6.1902   27.9537    1.2722 H           1 MOL       0.0297
     44 H18         5.1663   27.9212   -0.9945 H           1 MOL       0.0232
     45 H19         5.8237   26.3000   -1.2692 H           1 MOL       0.0232
     46 H20         6.9117   27.6826   -1.0582 H           1 MOL       0.0232
     47 H21         4.6123   26.3758    2.3847 H           1 MOL       0.0232
     48 H22         4.3384   25.5625    0.8350 H           1 MOL       0.0232
     49 H23         3.8458   27.2512    1.0541 H           1 MOL       0.0232
@<TRIPOS>BOND
     1     3     2   1
     2     2     5   1
     3     2     1   1
     4     5     6   1
     5     6     7   1
     6     7     8  ar
     7     7     9  ar
     8     3     4   2
     9    12    11   1
    10    11    14   1
    11    11    10   1
    12    14    15   1
    13    15    16  ar
    14    15    17  ar
    15    12    13   2
    16    19    20   1
    17    19    22   1
    18    18    19   1
    19    22    23   1
    20    23    25   1
    21    23    24   1
    22    20    26  ar
    23    20    21  ar
    24    10     3  am
    25    12    18  am
    26     1    27   1
    27     1    28   1
    28     1    29   1
    29     2    30   1
    30     5    31   1
    31     5    32   1
    32     6    33   1
    33     6    34   1
    34    10    35   1
    35    11    36   1
    36    14    37   1
    37    14    38   1
    38    18    39   1
    39    19    40   1
    40    22    41   1
    41    22    42   1
    42    23    43   1
    43    24    44   1
    44    24    45   1
    45    24    46   1
    46    25    47   1
    47    25    48   1
    48    25    49   1
@<TRIPOS>SUBSTRUCTURE
     1  MOL      2

