@<TRIPOS>MOLECULE
1a30_ligand_015
    49    48
SMALL
GAST_HUCK
****
This file was generated by PARSER (from files_GN.cpp)

@<TRIPOS>ATOM
      1 N           4.7410   32.1563    6.4973 N.4         1 MOL       0.2380
      2 CA          3.2736   32.1435    6.3841 C.3         1 MOL       0.0665
      3 C           2.7849   30.8975    6.9675 C.2         1 MOL       0.2269
      4 O           2.0825   30.9437    7.9698 O.2         1 MOL      -0.3907
      5 CB          2.7926   32.3296    4.9109 C.3         1 MOL       0.0194
      6 CG          3.2875   33.6136    4.1911 C.3         1 MOL       0.0075
      7 CD          4.5742   33.4743    3.4731 C.2         1 MOL       0.0351
      8 OE1         4.8065   32.3703    2.7287 O.co2       1 MOL      -0.5690
      9 OE2         5.2840   34.5867    3.1653 O.co2       1 MOL      -0.5690
     10 N           3.1783   29.7523    6.4281 N.am        1 MOL      -0.2595
     11 CA          2.9204   28.4137    6.8871 C.3         1 MOL       0.1424
     12 C           4.1888   27.7285    7.0995 C.2         1 MOL       0.2051
     13 O           4.1948   26.7421    7.8268 O.2         1 MOL      -0.3943
     14 CB          2.0293   27.6878    5.8270 C.3         1 MOL       0.0406
     15 CG          1.6660   26.2975    6.1858 C.2         1 MOL       0.0393
     16 OD1         2.5833   25.5120    6.8102 O.co2       1 MOL      -0.5688
     17 OD2         0.6951   25.6883    5.4542 O.co2       1 MOL      -0.5688
     18 N           5.2402   28.0066    6.3243 N.am        1 MOL      -0.2694
     19 CA          6.4450   27.2380    6.1846 C.3         1 MOL       0.0946
     20 C           7.3932   27.5535    7.2712 C.2         1 MOL       0.0601
     21 O           7.2105   26.9893    8.4927 O.co2       1 MOL      -0.5666
     22 CB          7.0112   27.5024    4.7517 C.3         1 MOL      -0.0156
     23 CG          8.1992   26.6165    4.2695 C.3         1 MOL      -0.0431
     24 CD1         8.0435   25.1148    4.6533 C.3         1 MOL      -0.0625
     25 CD2         8.3741   26.7612    2.7308 C.3         1 MOL      -0.0625
     26 OXT         8.2086   28.6292    7.1958 O.co2       1 MOL      -0.5666
     27 H1          5.1043   33.0537    6.1620 H           1 MOL       0.2015
     28 H2          5.1166   31.3975    5.9237 H           1 MOL       0.2015
     29 H3          5.0202   32.0274    7.4748 H           1 MOL       0.2015
     30 H4          2.9056   32.9992    6.9701 H           1 MOL       0.1099
     31 H5          1.6997   32.3684    4.9304 H           1 MOL       0.0363
     32 H6          3.0656   31.4614    4.3011 H           1 MOL       0.0363
     33 H7          3.3534   34.4289    4.9205 H           1 MOL       0.0434
     34 H8          2.5461   33.8947    3.4378 H           1 MOL       0.0434
     35 H9          3.7410   29.8287    5.6454 H           1 MOL       0.1886
     36 H10         2.3598   28.4365    7.8284 H           1 MOL       0.0819
     37 H11         2.5349   27.6866    4.8514 H           1 MOL       0.0478
     38 H12         1.0980   28.2668    5.7119 H           1 MOL       0.0478
     39 H13         5.1586   28.7807    5.7403 H           1 MOL       0.1875
     40 H14         6.1843   26.1795    6.2350 H           1 MOL       0.0726
     41 H15         7.3292   28.5466    4.7005 H           1 MOL       0.0308
     42 H16         6.1832   27.3801    4.0470 H           1 MOL       0.0308
     43 H17         9.1164   26.9844    4.7406 H           1 MOL       0.0297
     44 H18         8.8358   24.5184    4.1882 H           1 MOL       0.0232
     45 H19         7.0757   24.7265    4.3211 H           1 MOL       0.0232
     46 H20         8.1256   24.9861    5.7331 H           1 MOL       0.0232
     47 H21         8.5513   27.8061    2.4703 H           1 MOL       0.0232
     48 H22         7.4753   26.4153    2.2105 H           1 MOL       0.0232
     49 H23         9.2243   26.1721    2.3846 H           1 MOL       0.0232
@<TRIPOS>BOND
     1     3     2   1
     2     2     5   1
     3     2     1   1
     4     5     6   1
     5     6     7   1
     6     7     8  ar
     7     7     9  ar
     8     3     4   2
     9    12    11   1
    10    11    14   1
    11    11    10   1
    12    14    15   1
    13    15    16  ar
    14    15    17  ar
    15    12    13   2
    16    19    20   1
    17    19    22   1
    18    18    19   1
    19    22    23   1
    20    23    25   1
    21    23    24   1
    22    20    26  ar
    23    20    21  ar
    24    10     3  am
    25    12    18  am
    26     1    27   1
    27     1    28   1
    28     1    29   1
    29     2    30   1
    30     5    31   1
    31     5    32   1
    32     6    33   1
    33     6    34   1
    34    10    35   1
    35    11    36   1
    36    14    37   1
    37    14    38   1
    38    18    39   1
    39    19    40   1
    40    22    41   1
    41    22    42   1
    42    23    43   1
    43    24    44   1
    44    24    45   1
    45    24    46   1
    46    25    47   1
    47    25    48   1
    48    25    49   1
@<TRIPOS>SUBSTRUCTURE
     1  MOL      2

