@<TRIPOS>MOLECULE
1a30_ligand_072
    49    48
SMALL
GAST_HUCK
****
This file was generated by PARSER (from files_GN.cpp)

@<TRIPOS>ATOM
      1 N           9.0659   23.8311    6.6926 N.4         1 MOL       0.2380
      2 CA          9.9621   24.8095    6.0440 C.3         1 MOL       0.0665
      3 C          10.0515   24.5589    4.6096 C.2         1 MOL       0.2269
      4 O          11.1177   24.2563    4.0831 O.2         1 MOL      -0.3907
      5 CB         11.3149   24.8705    6.8283 C.3         1 MOL       0.0194
      6 CG         12.2800   23.6547    6.6770 C.3         1 MOL       0.0075
      7 CD         11.7873   22.4119    7.3167 C.2         1 MOL       0.0351
      8 OE1        12.3781   21.9684    8.4527 O.co2       1 MOL      -0.5690
      9 OE2        11.0658   21.5203    6.5851 O.co2       1 MOL      -0.5690
     10 N           8.9484   24.6774    3.8820 N.am        1 MOL      -0.2595
     11 CA          8.7639   24.3224    2.4956 C.3         1 MOL       0.1424
     12 C           7.3368   24.2874    2.1867 C.2         1 MOL       0.2051
     13 O           6.9705   24.5771    1.0482 O.2         1 MOL      -0.3943
     14 CB          9.4608   22.9869    2.0675 C.3         1 MOL       0.0406
     15 CG          9.3224   21.8972    3.0625 C.2         1 MOL       0.0393
     16 OD1        10.2485   21.7596    4.0409 O.co2       1 MOL      -0.5688
     17 OD2         8.4807   20.8612    2.8276 O.co2       1 MOL      -0.5688
     18 N           6.4623   23.8377    3.0825 N.am        1 MOL      -0.2694
     19 CA          5.0578   23.6000    2.8886 C.3         1 MOL       0.0946
     20 C           4.3323   24.8929    2.7518 C.2         1 MOL       0.0601
     21 O           4.3630   25.8114    3.7482 O.co2       1 MOL      -0.5666
     22 CB          4.5267   22.7371    4.0833 C.3         1 MOL      -0.0156
     23 CG          3.3365   21.7658    3.7850 C.3         1 MOL      -0.0431
     24 CD1         3.2963   20.6156    4.8337 C.3         1 MOL      -0.0625
     25 CD2         1.9592   22.4840    3.7365 C.3         1 MOL      -0.0625
     26 OXT         3.7392   25.2267    1.5842 O.co2       1 MOL      -0.5666
     27 H1          9.0471   23.9985    7.7043 H           1 MOL       0.2015
     28 H2          9.4114   22.8870    6.5141 H           1 MOL       0.2015
     29 H3          8.1108   23.9099    6.3304 H           1 MOL       0.2015
     30 H4          9.4779   25.7877    6.1596 H           1 MOL       0.1099
     31 H5         11.0958   25.0303    7.8944 H           1 MOL       0.0363
     32 H6         11.8533   25.7629    6.4877 H           1 MOL       0.0363
     33 H7         13.2288   23.9246    7.1514 H           1 MOL       0.0434
     34 H8         12.4811   23.4682    5.6210 H           1 MOL       0.0434
     35 H9          8.1539   24.9840    4.3560 H           1 MOL       0.1886
     36 H10         9.2225   25.1200    1.9020 H           1 MOL       0.0819
     37 H11        10.5265   23.1667    1.9087 H           1 MOL       0.0478
     38 H12         9.0670   22.6472    1.1013 H           1 MOL       0.0478
     39 H13         6.8114   23.5995    3.9548 H           1 MOL       0.1875
     40 H14         4.9336   23.0233    1.9692 H           1 MOL       0.0726
     41 H15         4.2457   23.3921    4.9224 H           1 MOL       0.0308
     42 H16         5.3624   22.1192    4.4434 H           1 MOL       0.0308
     43 H17         3.5084   21.3065    2.8089 H           1 MOL       0.0297
     44 H18         2.4735   19.9253    4.6130 H           1 MOL       0.0232
     45 H19         3.1614   21.0141    5.8419 H           1 MOL       0.0232
     46 H20         4.2298   20.0443    4.8047 H           1 MOL       0.0232
     47 H21         1.9387   23.2230    2.9322 H           1 MOL       0.0232
     48 H22         1.7411   22.9826    4.6838 H           1 MOL       0.0232
     49 H23         1.1656   21.7547    3.5337 H           1 MOL       0.0232
@<TRIPOS>BOND
     1     3     2   1
     2     2     5   1
     3     2     1   1
     4     5     6   1
     5     6     7   1
     6     7     8  ar
     7     7     9  ar
     8     3     4   2
     9    12    11   1
    10    11    14   1
    11    11    10   1
    12    14    15   1
    13    15    16  ar
    14    15    17  ar
    15    12    13   2
    16    19    20   1
    17    19    22   1
    18    18    19   1
    19    22    23   1
    20    23    25   1
    21    23    24   1
    22    20    26  ar
    23    20    21  ar
    24    10     3  am
    25    12    18  am
    26     1    27   1
    27     1    28   1
    28     1    29   1
    29     2    30   1
    30     5    31   1
    31     5    32   1
    32     6    33   1
    33     6    34   1
    34    10    35   1
    35    11    36   1
    36    14    37   1
    37    14    38   1
    38    18    39   1
    39    19    40   1
    40    22    41   1
    41    22    42   1
    42    23    43   1
    43    24    44   1
    44    24    45   1
    45    24    46   1
    46    25    47   1
    47    25    48   1
    48    25    49   1
@<TRIPOS>SUBSTRUCTURE
     1  MOL      2

