@<TRIPOS>MOLECULE
1a30_ligand_071
    49    48
SMALL
GAST_HUCK
****
This file was generated by PARSER (from files_GN.cpp)

@<TRIPOS>ATOM
      1 N          11.8604   23.4344    2.4599 N.4         1 MOL       0.2380
      2 CA         11.8510   24.2041    3.7235 C.3         1 MOL       0.0665
      3 C          12.7365   23.6168    4.7198 C.2         1 MOL       0.2269
      4 O          12.4364   23.7134    5.9037 O.2         1 MOL      -0.3907
      5 CB         10.3708   24.4190    4.1797 C.3         1 MOL       0.0194
      6 CG          9.6344   23.1799    4.7801 C.3         1 MOL       0.0075
      7 CD         10.0553   22.7904    6.1463 C.2         1 MOL       0.0351
      8 OE1        10.1236   23.7123    7.1403 O.co2       1 MOL      -0.5690
      9 OE2        10.4612   21.5267    6.4220 O.co2       1 MOL      -0.5690
     10 N          13.8893   23.0582    4.3961 N.am        1 MOL      -0.2595
     11 CA         14.7461   22.2632    5.2390 C.3         1 MOL       0.1424
     12 C          15.4392   23.0458    6.2607 C.2         1 MOL       0.2051
     13 O          15.8740   24.1598    5.9939 O.2         1 MOL      -0.3943
     14 CB         15.7467   21.4733    4.3459 C.3         1 MOL       0.0406
     15 CG         16.7187   20.6043    5.0486 C.2         1 MOL       0.0393
     16 OD1        16.4753   20.0863    6.2745 O.co2       1 MOL      -0.5688
     17 OD2        17.8268   20.1892    4.3957 O.co2       1 MOL      -0.5688
     18 N          15.5724   22.5351    7.4744 N.am        1 MOL      -0.2694
     19 CA         16.0953   23.1630    8.6539 C.3         1 MOL       0.0946
     20 C          17.5521   22.9258    8.8020 C.2         1 MOL       0.0601
     21 O          18.2344   23.5962    9.7579 O.co2       1 MOL      -0.5666
     22 CB         15.3412   22.6051    9.8976 C.3         1 MOL      -0.0156
     23 CG         13.7753   22.6819    9.9140 C.3         1 MOL      -0.0431
     24 CD1        13.0558   22.3261    8.5885 C.3         1 MOL      -0.0625
     25 CD2        13.2398   21.7915   11.0684 C.3         1 MOL      -0.0625
     26 OXT        18.1343   21.8223    8.2844 O.co2       1 MOL      -0.5666
     27 H1         11.2127   23.8487    1.7839 H           1 MOL       0.2015
     28 H2         11.5879   22.4682    2.6345 H           1 MOL       0.2015
     29 H3         12.8004   23.4530    2.0616 H           1 MOL       0.2015
     30 H4         12.2635   25.1931    3.4825 H           1 MOL       0.1099
     31 H5          9.7955   24.7476    3.3084 H           1 MOL       0.0363
     32 H6         10.3277   25.2440    4.8949 H           1 MOL       0.0363
     33 H7          9.7541   22.3243    4.1107 H           1 MOL       0.0434
     34 H8          8.5659   23.3991    4.8334 H           1 MOL       0.0434
     35 H9         14.1718   23.1653    3.4722 H           1 MOL       0.1886
     36 H10        14.0950   21.5198    5.7114 H           1 MOL       0.0819
     37 H11        16.3002   22.1862    3.7336 H           1 MOL       0.0478
     38 H12        15.1855   20.8297    3.6646 H           1 MOL       0.0478
     39 H13        15.2274   21.6364    7.5949 H           1 MOL       0.1875
     40 H14        15.9249   24.2401    8.5927 H           1 MOL       0.0726
     41 H15        15.6669   23.1570   10.7841 H           1 MOL       0.0308
     42 H16        15.6597   21.5674   10.0389 H           1 MOL       0.0308
     43 H17        13.4958   23.7173   10.1478 H           1 MOL       0.0297
     44 H18        11.9773   22.3931    8.7065 H           1 MOL       0.0232
     45 H19        13.3071   21.3165    8.2608 H           1 MOL       0.0232
     46 H20        13.3384   23.0417    7.8208 H           1 MOL       0.0232
     47 H21        13.7115   22.0862   12.0071 H           1 MOL       0.0232
     48 H22        13.4638   20.7390   10.8768 H           1 MOL       0.0232
     49 H23        12.1625   21.8992   11.1827 H           1 MOL       0.0232
@<TRIPOS>BOND
     1     3     2   1
     2     2     5   1
     3     2     1   1
     4     5     6   1
     5     6     7   1
     6     7     8  ar
     7     7     9  ar
     8     3     4   2
     9    12    11   1
    10    11    14   1
    11    11    10   1
    12    14    15   1
    13    15    16  ar
    14    15    17  ar
    15    12    13   2
    16    19    20   1
    17    19    22   1
    18    18    19   1
    19    22    23   1
    20    23    25   1
    21    23    24   1
    22    20    26  ar
    23    20    21  ar
    24    10     3  am
    25    12    18  am
    26     1    27   1
    27     1    28   1
    28     1    29   1
    29     2    30   1
    30     5    31   1
    31     5    32   1
    32     6    33   1
    33     6    34   1
    34    10    35   1
    35    11    36   1
    36    14    37   1
    37    14    38   1
    38    18    39   1
    39    19    40   1
    40    22    41   1
    41    22    42   1
    42    23    43   1
    43    24    44   1
    44    24    45   1
    45    24    46   1
    46    25    47   1
    47    25    48   1
    48    25    49   1
@<TRIPOS>SUBSTRUCTURE
     1  MOL      2

