@<TRIPOS>MOLECULE
1a30_ligand_076
    49    48
SMALL
GAST_HUCK
****
This file was generated by PARSER (from files_GN.cpp)

@<TRIPOS>ATOM
      1 N          15.2159   16.8854    4.4915 N.4         1 MOL       0.2380
      2 CA         16.5711   17.4420    4.6508 C.3         1 MOL       0.0665
      3 C          16.5693   18.8964    4.7627 C.2         1 MOL       0.2269
      4 O          17.5785   19.5061    4.3881 O.2         1 MOL      -0.3907
      5 CB         17.5051   16.8464    3.5374 C.3         1 MOL       0.0194
      6 CG         17.0321   17.0061    2.0619 C.3         1 MOL       0.0075
      7 CD         16.6192   18.3772    1.7234 C.2         1 MOL       0.0351
      8 OE1        15.3136   18.6640    1.5060 O.co2       1 MOL      -0.5690
      9 OE2        17.5154   19.3885    1.7540 O.co2       1 MOL      -0.5690
     10 N          15.5534   19.5828    5.2762 N.am        1 MOL      -0.2595
     11 CA         15.4878   21.0080    5.4588 C.3         1 MOL       0.1424
     12 C          14.2207   21.4275    6.0962 C.2         1 MOL       0.2051
     13 O          13.8065   20.7741    7.0545 O.2         1 MOL      -0.3943
     14 CB         15.7932   21.7290    4.0883 C.3         1 MOL       0.0406
     15 CG         14.7710   21.5475    3.0316 C.2         1 MOL       0.0393
     16 OD1        13.5672   20.9415    3.2390 O.co2       1 MOL      -0.5688
     17 OD2        15.0047   22.0849    1.8204 O.co2       1 MOL      -0.5688
     18 N          13.5730   22.5055    5.7120 N.am        1 MOL      -0.2694
     19 CA         12.2993   22.9948    6.1801 C.3         1 MOL       0.0946
     20 C          11.2458   22.0423    5.7656 C.2         1 MOL       0.0601
     21 O          10.9569   21.8385    4.4654 O.co2       1 MOL      -0.5666
     22 CB         12.0652   24.4218    5.5953 C.3         1 MOL      -0.0156
     23 CG         10.8714   25.2821    6.1362 C.3         1 MOL      -0.0431
     24 CD1         9.4831   24.5901    6.0298 C.3         1 MOL      -0.0625
     25 CD2        11.1150   25.8207    7.5724 C.3         1 MOL      -0.0625
     26 OXT        10.7151   21.1823    6.6618 O.co2       1 MOL      -0.5666
     27 H1         15.2702   15.8695    4.5034 H           1 MOL       0.2015
     28 H2         14.8201   17.2001    3.6038 H           1 MOL       0.2015
     29 H3         14.6277   17.2002    5.2571 H           1 MOL       0.2015
     30 H4         16.9579   17.0763    5.6093 H           1 MOL       0.1099
     31 H5         17.6057   15.7725    3.7250 H           1 MOL       0.0363
     32 H6         18.5182   17.2623    3.6255 H           1 MOL       0.0363
     33 H7         16.2046   16.3153    1.8793 H           1 MOL       0.0434
     34 H8         17.8448   16.7197    1.3891 H           1 MOL       0.0434
     35 H9         14.7713   19.0775    5.5584 H           1 MOL       0.1886
     36 H10        16.2724   21.3002    6.1682 H           1 MOL       0.0819
     37 H11        16.7268   21.2981    3.6931 H           1 MOL       0.0478
     38 H12        15.9464   22.7888    4.2578 H           1 MOL       0.0478
     39 H13        13.9751   23.0333    5.0160 H           1 MOL       0.1875
     40 H14        12.3369   23.0665    7.2735 H           1 MOL       0.0726
     41 H15        11.9567   24.3490    4.5086 H           1 MOL       0.0308
     42 H16        12.9720   25.0173    5.7607 H           1 MOL       0.0308
     43 H17        10.8184   26.1694    5.4886 H           1 MOL       0.0297
     44 H18         8.6878   25.3065    6.2458 H           1 MOL       0.0232
     45 H19         9.4038   23.7645    6.7403 H           1 MOL       0.0232
     46 H20         9.3278   24.2069    5.0198 H           1 MOL       0.0232
     47 H21        12.0612   26.3651    7.6154 H           1 MOL       0.0232
     48 H22        11.1432   25.0061    8.2998 H           1 MOL       0.0232
     49 H23        10.3181   26.5143    7.8560 H           1 MOL       0.0232
@<TRIPOS>BOND
     1     3     2   1
     2     2     5   1
     3     2     1   1
     4     5     6   1
     5     6     7   1
     6     7     8  ar
     7     7     9  ar
     8     3     4   2
     9    12    11   1
    10    11    14   1
    11    11    10   1
    12    14    15   1
    13    15    16  ar
    14    15    17  ar
    15    12    13   2
    16    19    20   1
    17    19    22   1
    18    18    19   1
    19    22    23   1
    20    23    25   1
    21    23    24   1
    22    20    26  ar
    23    20    21  ar
    24    10     3  am
    25    12    18  am
    26     1    27   1
    27     1    28   1
    28     1    29   1
    29     2    30   1
    30     5    31   1
    31     5    32   1
    32     6    33   1
    33     6    34   1
    34    10    35   1
    35    11    36   1
    36    14    37   1
    37    14    38   1
    38    18    39   1
    39    19    40   1
    40    22    41   1
    41    22    42   1
    42    23    43   1
    43    24    44   1
    44    24    45   1
    45    24    46   1
    46    25    47   1
    47    25    48   1
    48    25    49   1
@<TRIPOS>SUBSTRUCTURE
     1  MOL      2

