@<TRIPOS>MOLECULE
1a30_ligand_086
    49    48
SMALL
GAST_HUCK
****
This file was generated by PARSER (from files_GN.cpp)

@<TRIPOS>ATOM
      1 N          14.9799   21.7267    2.8618 N.4         1 MOL       0.2380
      2 CA         15.1256   20.2708    3.0533 C.3         1 MOL       0.0665
      3 C          15.2471   20.0001    4.4752 C.2         1 MOL       0.2269
      4 O          14.3321   19.3778    5.0084 O.2         1 MOL      -0.3907
      5 CB         16.3148   19.6916    2.2235 C.3         1 MOL       0.0194
      6 CG         16.3560   18.1423    2.0772 C.3         1 MOL       0.0075
      7 CD         17.2919   17.4830    3.0070 C.2         1 MOL       0.0351
      8 OE1        16.8884   16.4281    3.7551 O.co2       1 MOL      -0.5690
      9 OE2        18.6155   17.7354    2.9023 O.co2       1 MOL      -0.5690
     10 N          16.3182   20.3803    5.1677 N.am        1 MOL      -0.2595
     11 CA         16.5809   20.0656    6.5522 C.3         1 MOL       0.1424
     12 C          15.4217   20.2946    7.4126 C.2         1 MOL       0.2051
     13 O          15.2174   19.5389    8.3665 O.2         1 MOL      -0.3943
     14 CB         17.8697   20.7627    7.0779 C.3         1 MOL       0.0406
     15 CG         17.6738   21.9851    7.8803 C.2         1 MOL       0.0393
     16 OD1        16.7335   22.8855    7.5224 O.co2       1 MOL      -0.5688
     17 OD2        18.6244   22.3573    8.7689 O.co2       1 MOL      -0.5688
     18 N          14.5730   21.2680    7.1136 N.am        1 MOL      -0.2694
     19 CA         13.2821   21.4847    7.6865 C.3         1 MOL       0.0946
     20 C          12.3601   21.8257    6.5797 C.2         1 MOL       0.0601
     21 O          12.6114   22.8804    5.7696 O.co2       1 MOL      -0.5666
     22 CB         13.3073   22.6003    8.7705 C.3         1 MOL      -0.0156
     23 CG         14.2250   22.3263   10.0056 C.3         1 MOL      -0.0431
     24 CD1        14.0297   23.4401   11.0743 C.3         1 MOL      -0.0625
     25 CD2        14.0078   20.9387   10.6565 C.3         1 MOL      -0.0625
     26 OXT        11.2695   21.0703    6.3066 O.co2       1 MOL      -0.5666
     27 H1         14.9153   21.9540    1.8684 H           1 MOL       0.2015
     28 H2         15.7828   22.2126    3.2645 H           1 MOL       0.2015
     29 H3         14.1277   22.0453    3.3290 H           1 MOL       0.2015
     30 H4         14.2048   19.8179    2.6592 H           1 MOL       0.1099
     31 H5         17.2622   20.0307    2.6470 H           1 MOL       0.0363
     32 H6         16.2454   20.1035    1.2123 H           1 MOL       0.0363
     33 H7         16.6882   17.8900    1.0660 H           1 MOL       0.0434
     34 H8         15.3491   17.7331    2.2009 H           1 MOL       0.0434
     35 H9         16.9836   20.9163    4.7024 H           1 MOL       0.1886
     36 H10        16.8016   18.9914    6.5532 H           1 MOL       0.0819
     37 H11        18.5134   21.0167    6.2330 H           1 MOL       0.0478
     38 H12        18.4201   20.0430    7.6873 H           1 MOL       0.0478
     39 H13        14.8131   21.8552    6.3811 H           1 MOL       0.1875
     40 H14        12.9027   20.5754    8.1454 H           1 MOL       0.0726
     41 H15        12.2847   22.7718    9.1219 H           1 MOL       0.0308
     42 H16        13.6443   23.5262    8.2879 H           1 MOL       0.0308
     43 H17        15.2622   22.3834    9.6760 H           1 MOL       0.0297
     44 H18        14.7344   23.3097   11.8994 H           1 MOL       0.0232
     45 H19        13.0178   23.4254   11.4795 H           1 MOL       0.0232
     46 H20        14.2052   24.4229   10.6344 H           1 MOL       0.0232
     47 H21        14.1796   20.1352    9.9391 H           1 MOL       0.0232
     48 H22        12.9906   20.8600   11.0561 H           1 MOL       0.0232
     49 H23        14.7152   20.8098   11.4799 H           1 MOL       0.0232
@<TRIPOS>BOND
     1     3     2   1
     2     2     5   1
     3     2     1   1
     4     5     6   1
     5     6     7   1
     6     7     8  ar
     7     7     9  ar
     8     3     4   2
     9    12    11   1
    10    11    14   1
    11    11    10   1
    12    14    15   1
    13    15    16  ar
    14    15    17  ar
    15    12    13   2
    16    19    20   1
    17    19    22   1
    18    18    19   1
    19    22    23   1
    20    23    25   1
    21    23    24   1
    22    20    26  ar
    23    20    21  ar
    24    10     3  am
    25    12    18  am
    26     1    27   1
    27     1    28   1
    28     1    29   1
    29     2    30   1
    30     5    31   1
    31     5    32   1
    32     6    33   1
    33     6    34   1
    34    10    35   1
    35    11    36   1
    36    14    37   1
    37    14    38   1
    38    18    39   1
    39    19    40   1
    40    22    41   1
    41    22    42   1
    42    23    43   1
    43    24    44   1
    44    24    45   1
    45    24    46   1
    46    25    47   1
    47    25    48   1
    48    25    49   1
@<TRIPOS>SUBSTRUCTURE
     1  MOL      2

