@<TRIPOS>MOLECULE
1a30_ligand_084
    49    48
SMALL
GAST_HUCK
****
This file was generated by PARSER (from files_GN.cpp)

@<TRIPOS>ATOM
      1 N           0.9347   25.7269    0.7238 N.4         1 MOL       0.2380
      2 CA          1.2002   26.1936    2.1025 C.3         1 MOL       0.0665
      3 C           2.3527   25.5148    2.6986 C.2         1 MOL       0.2269
      4 O           2.6231   24.3714    2.3403 O.2         1 MOL      -0.3907
      5 CB         -0.0906   26.1018    2.9708 C.3         1 MOL       0.0194
      6 CG         -0.5855   24.6798    3.3516 C.3         1 MOL       0.0075
      7 CD          0.2294   24.0400    4.4108 C.2         1 MOL       0.0351
      8 OE1         1.0234   22.9743    4.1353 O.co2       1 MOL      -0.5690
      9 OE2         0.2152   24.5165    5.6831 O.co2       1 MOL      -0.5690
     10 N           3.0674   26.1388    3.6335 N.am        1 MOL      -0.2595
     11 CA          4.1876   25.6314    4.3863 C.3         1 MOL       0.1424
     12 C           4.6724   26.5928    5.3690 C.2         1 MOL       0.2051
     13 O           4.1040   27.6788    5.4861 O.2         1 MOL      -0.3943
     14 CB          5.3573   25.1502    3.4655 C.3         1 MOL       0.0406
     15 CG          5.3415   25.7537    2.1132 C.2         1 MOL       0.0393
     16 OD1         5.5671   27.0782    1.9238 O.co2       1 MOL      -0.5688
     17 OD2         5.0925   24.9811    1.0240 O.co2       1 MOL      -0.5688
     18 N           5.6727   26.2821    6.1891 N.am        1 MOL      -0.2694
     19 CA          6.2472   27.1395    7.1876 C.3         1 MOL       0.0946
     20 C           7.2563   28.0640    6.6056 C.2         1 MOL       0.0601
     21 O           7.5503   28.0632    5.2812 O.co2       1 MOL      -0.5666
     22 CB          6.8143   26.3650    8.4264 C.3         1 MOL      -0.0156
     23 CG          8.3196   25.9195    8.4497 C.3         1 MOL      -0.0431
     24 CD1         8.7951   25.6598    9.9062 C.3         1 MOL      -0.0625
     25 CD2         8.6062   24.6756    7.5694 C.3         1 MOL      -0.0625
     26 OXT         7.9754   28.8771    7.4090 O.co2       1 MOL      -0.5666
     27 H1          0.1536   26.2586    0.3176 H           1 MOL       0.2015
     28 H2          0.6941   24.7368    0.7371 H           1 MOL       0.2015
     29 H3          1.7645   25.8679    0.1444 H           1 MOL       0.2015
     30 H4          1.4526   27.2606    1.9904 H           1 MOL       0.1099
     31 H5         -0.8964   26.5853    2.4099 H           1 MOL       0.0363
     32 H6          0.0412   26.7027    3.8790 H           1 MOL       0.0363
     33 H7         -0.5931   24.0415    2.4704 H           1 MOL       0.0434
     34 H8         -1.6094   24.7388    3.7203 H           1 MOL       0.0434
     35 H9          2.7682   27.0304    3.8524 H           1 MOL       0.1886
     36 H10         3.8338   24.7565    4.9392 H           1 MOL       0.0819
     37 H11         5.3225   24.0584    3.3545 H           1 MOL       0.0478
     38 H12         6.3336   25.3698    3.9256 H           1 MOL       0.0478
     39 H13         6.0339   25.3884    6.1234 H           1 MOL       0.1875
     40 H14         5.4337   27.7695    7.5731 H           1 MOL       0.0726
     41 H15         6.1842   25.4826    8.5895 H           1 MOL       0.0308
     42 H16         6.6568   27.0237    9.2851 H           1 MOL       0.0308
     43 H17         8.9299   26.7410    8.0635 H           1 MOL       0.0297
     44 H18         9.8522   25.3815    9.9182 H           1 MOL       0.0232
     45 H19         8.2110   24.8538   10.3583 H           1 MOL       0.0232
     46 H20         8.6803   26.5621   10.5109 H           1 MOL       0.0232
     47 H21         8.3293   24.8640    6.5282 H           1 MOL       0.0232
     48 H22         8.0491   23.8120    7.9414 H           1 MOL       0.0232
     49 H23         9.6743   24.4347    7.5945 H           1 MOL       0.0232
@<TRIPOS>BOND
     1     3     2   1
     2     2     5   1
     3     2     1   1
     4     5     6   1
     5     6     7   1
     6     7     8  ar
     7     7     9  ar
     8     3     4   2
     9    12    11   1
    10    11    14   1
    11    11    10   1
    12    14    15   1
    13    15    16  ar
    14    15    17  ar
    15    12    13   2
    16    19    20   1
    17    19    22   1
    18    18    19   1
    19    22    23   1
    20    23    25   1
    21    23    24   1
    22    20    26  ar
    23    20    21  ar
    24    10     3  am
    25    12    18  am
    26     1    27   1
    27     1    28   1
    28     1    29   1
    29     2    30   1
    30     5    31   1
    31     5    32   1
    32     6    33   1
    33     6    34   1
    34    10    35   1
    35    11    36   1
    36    14    37   1
    37    14    38   1
    38    18    39   1
    39    19    40   1
    40    22    41   1
    41    22    42   1
    42    23    43   1
    43    24    44   1
    44    24    45   1
    45    24    46   1
    46    25    47   1
    47    25    48   1
    48    25    49   1
@<TRIPOS>SUBSTRUCTURE
     1  MOL      2

