@<TRIPOS>MOLECULE
1a30_ligand_061
    49    48
SMALL
GAST_HUCK
****
This file was generated by PARSER (from files_GN.cpp)

@<TRIPOS>ATOM
      1 N           7.2047   26.0839    7.8694 N.4         1 MOL       0.2380
      2 CA          8.2057   26.5240    6.8846 C.3         1 MOL       0.0665
      3 C           7.5214   26.9228    5.6559 C.2         1 MOL       0.2269
      4 O           7.5565   28.0939    5.3188 O.2         1 MOL      -0.3907
      5 CB          9.3767   25.5024    6.7005 C.3         1 MOL       0.0194
      6 CG          9.0220   23.9838    6.6746 C.3         1 MOL       0.0075
      7 CD         10.2032   23.1034    6.7770 C.2         1 MOL       0.0351
      8 OE1        11.0753   23.2667    7.7977 O.co2       1 MOL      -0.5690
      9 OE2        10.1919   21.8944    6.1718 O.co2       1 MOL      -0.5690
     10 N           6.7971   26.0340    4.9724 N.am        1 MOL      -0.2595
     11 CA          5.9490   26.2683    3.8323 C.3         1 MOL       0.1424
     12 C           6.5902   27.1611    2.8612 C.2         1 MOL       0.2051
     13 O           6.0173   28.1762    2.4702 O.2         1 MOL      -0.3943
     14 CB          4.5028   26.6857    4.2493 C.3         1 MOL       0.0406
     15 CG          3.8775   25.7979    5.2503 C.2         1 MOL       0.0393
     16 OD1         4.2417   25.8825    6.5488 O.co2       1 MOL      -0.5688
     17 OD2         2.7549   25.1050    4.9541 O.co2       1 MOL      -0.5688
     18 N           7.8161   26.9061    2.4552 N.am        1 MOL      -0.2694
     19 CA          8.6830   27.7389    1.6574 C.3         1 MOL       0.0946
     20 C           9.0579   28.9640    2.4211 C.2         1 MOL       0.0601
     21 O           9.2171   28.8836    3.7639 O.co2       1 MOL      -0.5666
     22 CB          8.1365   28.0579    0.2318 C.3         1 MOL      -0.0156
     23 CG          7.4332   26.8833   -0.5464 C.3         1 MOL      -0.0431
     24 CD1         5.8856   27.0499   -0.5775 C.3         1 MOL      -0.0625
     25 CD2         7.9771   26.7517   -1.9945 C.3         1 MOL      -0.0625
     26 OXT         9.6379   30.0349    1.8133 O.co2       1 MOL      -0.5666
     27 H1          7.6720   25.8286    8.7421 H           1 MOL       0.2015
     28 H2          6.6929   25.2757    7.5063 H           1 MOL       0.2015
     29 H3          6.5417   26.8399    8.0578 H           1 MOL       0.2015
     30 H4          8.6544   27.4247    7.3176 H           1 MOL       0.1099
     31 H5         10.0636   25.6702    7.5331 H           1 MOL       0.0363
     32 H6          9.9244   25.7491    5.7853 H           1 MOL       0.0363
     33 H7          8.4917   23.7497    5.7501 H           1 MOL       0.0434
     34 H8          8.3689   23.7385    7.5102 H           1 MOL       0.0434
     35 H9          6.7905   25.1263    5.3115 H           1 MOL       0.1886
     36 H10         5.8506   25.3026    3.3258 H           1 MOL       0.0819
     37 H11         3.8726   26.6915    3.3563 H           1 MOL       0.0478
     38 H12         4.5042   27.7015    4.6510 H           1 MOL       0.0478
     39 H13         8.2198   26.0832    2.7913 H           1 MOL       0.1875
     40 H14         9.5974   27.1659    1.5195 H           1 MOL       0.0726
     41 H15         8.9796   28.4429   -0.3557 H           1 MOL       0.0308
     42 H16         7.4440   28.8902    0.3163 H           1 MOL       0.0308
     43 H17         7.6449   25.9345   -0.0452 H           1 MOL       0.0297
     44 H18         5.4140   26.2253   -1.1155 H           1 MOL       0.0232
     45 H19         5.6153   27.9809   -1.0770 H           1 MOL       0.0232
     46 H20         5.4759   27.0691    0.4329 H           1 MOL       0.0232
     47 H21         9.0431   26.5259   -1.9754 H           1 MOL       0.0232
     48 H22         7.8235   27.6814   -2.5419 H           1 MOL       0.0232
     49 H23         7.4714   25.9450   -2.5308 H           1 MOL       0.0232
@<TRIPOS>BOND
     1     3     2   1
     2     2     5   1
     3     2     1   1
     4     5     6   1
     5     6     7   1
     6     7     8  ar
     7     7     9  ar
     8     3     4   2
     9    12    11   1
    10    11    14   1
    11    11    10   1
    12    14    15   1
    13    15    16  ar
    14    15    17  ar
    15    12    13   2
    16    19    20   1
    17    19    22   1
    18    18    19   1
    19    22    23   1
    20    23    25   1
    21    23    24   1
    22    20    26  ar
    23    20    21  ar
    24    10     3  am
    25    12    18  am
    26     1    27   1
    27     1    28   1
    28     1    29   1
    29     2    30   1
    30     5    31   1
    31     5    32   1
    32     6    33   1
    33     6    34   1
    34    10    35   1
    35    11    36   1
    36    14    37   1
    37    14    38   1
    38    18    39   1
    39    19    40   1
    40    22    41   1
    41    22    42   1
    42    23    43   1
    43    24    44   1
    44    24    45   1
    45    24    46   1
    46    25    47   1
    47    25    48   1
    48    25    49   1
@<TRIPOS>SUBSTRUCTURE
     1  MOL      2

