@<TRIPOS>MOLECULE
1a30_ligand_023
    49    48
SMALL
GAST_HUCK
****
This file was generated by PARSER (from files_GN.cpp)

@<TRIPOS>ATOM
      1 N          13.5396   25.2123    4.6885 N.4         1 MOL       0.2380
      2 CA         13.1591   23.8228    5.0183 C.3         1 MOL       0.0665
      3 C          11.9043   23.5472    4.3348 C.2         1 MOL       0.2269
      4 O          10.9070   23.2420    4.9888 O.2         1 MOL      -0.3907
      5 CB         13.1471   23.6447    6.5692 C.3         1 MOL       0.0194
      6 CG         12.9079   22.2254    7.1946 C.3         1 MOL       0.0075
      7 CD         12.6554   21.1044    6.2641 C.2         1 MOL       0.0351
      8 OE1        13.6102   20.7165    5.3900 O.co2       1 MOL      -0.5690
      9 OE2        11.4352   20.5276    6.1912 O.co2       1 MOL      -0.5690
     10 N          11.8328   23.6624    3.0054 N.am        1 MOL      -0.2595
     11 CA         10.7229   23.2894    2.1561 C.3         1 MOL       0.1424
     12 C           9.4321   23.6952    2.7138 C.2         1 MOL       0.2051
     13 O           8.6089   22.8337    3.0169 O.2         1 MOL      -0.3943
     14 CB         10.9252   21.7841    1.7851 C.3         1 MOL       0.0406
     15 CG          9.7314   21.1120    1.2595 C.2         1 MOL       0.0393
     16 OD1         9.2958   19.9808    1.8623 O.co2       1 MOL      -0.5688
     17 OD2         8.9413   21.6718    0.3171 O.co2       1 MOL      -0.5688
     18 N           9.1955   24.9749    2.9787 N.am        1 MOL      -0.2694
     19 CA          8.0138   25.5026    3.6143 C.3         1 MOL       0.0946
     20 C           6.7429   24.9653    3.0714 C.2         1 MOL       0.0601
     21 O           5.5867   25.1329    3.7593 O.co2       1 MOL      -0.5666
     22 CB          8.0316   27.0614    3.6607 C.3         1 MOL      -0.0156
     23 CG          7.7155   27.9294    2.3767 C.3         1 MOL      -0.0431
     24 CD1         8.9187   28.8110    1.9284 C.3         1 MOL      -0.0625
     25 CD2         7.1267   27.1817    1.1540 C.3         1 MOL      -0.0625
     26 OXT         6.7055   24.2847    1.9050 O.co2       1 MOL      -0.5666
     27 H1         14.3733   25.4854    5.2133 H           1 MOL       0.2015
     28 H2         12.7760   25.8472    4.9319 H           1 MOL       0.2015
     29 H3         13.7357   25.2859    3.6897 H           1 MOL       0.2015
     30 H4         13.9364   23.1725    4.6103 H           1 MOL       0.1099
     31 H5         12.3926   24.3271    6.9767 H           1 MOL       0.0363
     32 H6         14.1102   24.0144    6.9502 H           1 MOL       0.0363
     33 H7         12.0598   22.2894    7.8797 H           1 MOL       0.0434
     34 H8         13.7731   21.9518    7.8006 H           1 MOL       0.0434
     35 H9         12.6632   23.9015    2.5490 H           1 MOL       0.1886
     36 H10        10.8443   23.8365    1.2249 H           1 MOL       0.0819
     37 H11        11.2736   21.2290    2.6631 H           1 MOL       0.0478
     38 H12        11.7162   21.7081    1.0303 H           1 MOL       0.0478
     39 H13         9.9048   25.6161    2.7718 H           1 MOL       0.1875
     40 H14         8.0631   25.1659    4.6568 H           1 MOL       0.0726
     41 H15         9.0200   27.3508    4.0425 H           1 MOL       0.0308
     42 H16         7.3290   27.3661    4.4498 H           1 MOL       0.0308
     43 H17         6.9409   28.6408    2.6876 H           1 MOL       0.0297
     44 H18         8.6187   29.4882    1.1277 H           1 MOL       0.0232
     45 H19         9.7330   28.1779    1.5646 H           1 MOL       0.0232
     46 H20         9.2827   29.4182    2.7609 H           1 MOL       0.0232
     47 H21         6.1827   26.7028    1.4244 H           1 MOL       0.0232
     48 H22         7.8241   26.4261    0.7900 H           1 MOL       0.0232
     49 H23         6.9215   27.8777    0.3421 H           1 MOL       0.0232
@<TRIPOS>BOND
     1     3     2   1
     2     2     5   1
     3     2     1   1
     4     5     6   1
     5     6     7   1
     6     7     8  ar
     7     7     9  ar
     8     3     4   2
     9    12    11   1
    10    11    14   1
    11    11    10   1
    12    14    15   1
    13    15    16  ar
    14    15    17  ar
    15    12    13   2
    16    19    20   1
    17    19    22   1
    18    18    19   1
    19    22    23   1
    20    23    25   1
    21    23    24   1
    22    20    26  ar
    23    20    21  ar
    24    10     3  am
    25    12    18  am
    26     1    27   1
    27     1    28   1
    28     1    29   1
    29     2    30   1
    30     5    31   1
    31     5    32   1
    32     6    33   1
    33     6    34   1
    34    10    35   1
    35    11    36   1
    36    14    37   1
    37    14    38   1
    38    18    39   1
    39    19    40   1
    40    22    41   1
    41    22    42   1
    42    23    43   1
    43    24    44   1
    44    24    45   1
    45    24    46   1
    46    25    47   1
    47    25    48   1
    48    25    49   1
@<TRIPOS>SUBSTRUCTURE
     1  MOL      2

