@<TRIPOS>MOLECULE
1a30_ligand_039
    49    48
SMALL
GAST_HUCK
****
This file was generated by PARSER (from files_GN.cpp)

@<TRIPOS>ATOM
      1 N          13.6596   25.2457    4.5671 N.4         1 MOL       0.2380
      2 CA         13.1301   23.8909    4.8218 C.3         1 MOL       0.0665
      3 C          14.2020   22.9322    5.1002 C.2         1 MOL       0.2269
      4 O          15.3633   23.3231    5.1728 O.2         1 MOL      -0.3907
      5 CB         12.2135   23.4428    3.6367 C.3         1 MOL       0.0194
      6 CG         11.4037   24.5854    2.9542 C.3         1 MOL       0.0075
      7 CD         10.4188   24.0714    1.9841 C.2         1 MOL       0.0351
      8 OE1        10.5504   24.3177    0.6587 O.co2       1 MOL      -0.5690
      9 OE2         9.3105   23.4177    2.4129 O.co2       1 MOL      -0.5690
     10 N          13.9254   21.6451    5.2851 N.am        1 MOL      -0.2595
     11 CA         14.8380   20.5445    5.4640 C.3         1 MOL       0.1424
     12 C          15.4078   20.5597    6.8096 C.2         1 MOL       0.2051
     13 O          14.7771   19.9987    7.7063 O.2         1 MOL      -0.3943
     14 CB         15.8417   20.4260    4.2752 C.3         1 MOL       0.0406
     15 CG         16.6589   19.2009    4.3219 C.2         1 MOL       0.0393
     16 OD1        18.0137   19.2891    4.3501 O.co2       1 MOL      -0.5688
     17 OD2        16.0805   17.9827    4.1793 O.co2       1 MOL      -0.5688
     18 N          16.5199   21.2268    7.0995 N.am        1 MOL      -0.2694
     19 CA         17.0795   21.4041    8.4187 C.3         1 MOL       0.0946
     20 C          16.1439   22.2429    9.2275 C.2         1 MOL       0.0601
     21 O          15.1824   21.6498    9.9878 O.co2       1 MOL      -0.5666
     22 CB         18.5212   22.0085    8.4085 C.3         1 MOL      -0.0156
     23 CG         19.7273   21.0123    8.4008 C.3         1 MOL      -0.0431
     24 CD1        19.7747   20.1104    9.6680 C.3         1 MOL      -0.0625
     25 CD2        19.8245   20.1683    7.1026 C.3         1 MOL      -0.0625
     26 OXT        16.2147   23.5989    9.2091 O.co2       1 MOL      -0.5666
     27 H1         12.8883   25.9138    4.4702 H           1 MOL       0.2015
     28 H2         14.2176   25.2398    3.7059 H           1 MOL       0.2015
     29 H3         14.2466   25.5408    5.3506 H           1 MOL       0.2015
     30 H4         12.5136   23.9637    5.7186 H           1 MOL       0.1099
     31 H5         11.5036   22.6993    4.0168 H           1 MOL       0.0363
     32 H6         12.8214   22.9499    2.8694 H           1 MOL       0.0363
     33 H7         12.0952   25.2449    2.4286 H           1 MOL       0.0434
     34 H8         10.8752   25.1789    3.7012 H           1 MOL       0.0434
     35 H9         12.9800   21.4073    5.2501 H           1 MOL       0.1886
     36 H10        14.1914   19.6609    5.3922 H           1 MOL       0.0819
     37 H11        16.4932   21.2992    4.2436 H           1 MOL       0.0478
     38 H12        15.2740   20.4089    3.3442 H           1 MOL       0.0478
     39 H13        17.0043   21.6335    6.3604 H           1 MOL       0.1875
     40 H14        17.1270   20.4288    8.8990 H           1 MOL       0.0726
     41 H15        18.6548   22.6508    9.2861 H           1 MOL       0.0308
     42 H16        18.6204   22.6613    7.5397 H           1 MOL       0.0308
     43 H17        20.6387   21.6153    8.4366 H           1 MOL       0.0297
     44 H18        20.7161   19.5535    9.7126 H           1 MOL       0.0232
     45 H19        18.9479   19.3978    9.6762 H           1 MOL       0.0232
     46 H20        19.7151   20.7211   10.5714 H           1 MOL       0.0232
     47 H21        19.8532   20.8288    6.2298 H           1 MOL       0.0232
     48 H22        18.9682   19.4986    7.0100 H           1 MOL       0.0232
     49 H23        20.7315   19.5526    7.1117 H           1 MOL       0.0232
@<TRIPOS>BOND
     1     3     2   1
     2     2     5   1
     3     2     1   1
     4     5     6   1
     5     6     7   1
     6     7     8  ar
     7     7     9  ar
     8     3     4   2
     9    12    11   1
    10    11    14   1
    11    11    10   1
    12    14    15   1
    13    15    16  ar
    14    15    17  ar
    15    12    13   2
    16    19    20   1
    17    19    22   1
    18    18    19   1
    19    22    23   1
    20    23    25   1
    21    23    24   1
    22    20    26  ar
    23    20    21  ar
    24    10     3  am
    25    12    18  am
    26     1    27   1
    27     1    28   1
    28     1    29   1
    29     2    30   1
    30     5    31   1
    31     5    32   1
    32     6    33   1
    33     6    34   1
    34    10    35   1
    35    11    36   1
    36    14    37   1
    37    14    38   1
    38    18    39   1
    39    19    40   1
    40    22    41   1
    41    22    42   1
    42    23    43   1
    43    24    44   1
    44    24    45   1
    45    24    46   1
    46    25    47   1
    47    25    48   1
    48    25    49   1
@<TRIPOS>SUBSTRUCTURE
     1  MOL      2

