@<TRIPOS>MOLECULE
1a30_ligand_067
    49    48
SMALL
GAST_HUCK
****
This file was generated by PARSER (from files_GN.cpp)

@<TRIPOS>ATOM
      1 N          16.9473   20.5827    4.5799 N.4         1 MOL       0.2380
      2 CA         15.6112   21.0124    4.1241 C.3         1 MOL       0.0665
      3 C          15.0488   21.9778    5.0609 C.2         1 MOL       0.2269
      4 O          15.0553   21.7176    6.2614 O.2         1 MOL      -0.3907
      5 CB         14.7290   19.7639    3.7878 C.3         1 MOL       0.0194
      6 CG         13.6932   19.2876    4.8446 C.3         1 MOL       0.0075
      7 CD         12.5774   20.2276    5.0590 C.2         1 MOL       0.0351
      8 OE1        11.8127   20.1269    6.1875 O.co2       1 MOL      -0.5690
      9 OE2        11.9947   20.8714    4.0098 O.co2       1 MOL      -0.5690
     10 N          14.5354   23.1229    4.6269 N.am        1 MOL      -0.2595
     11 CA         14.0775   24.2388    5.4245 C.3         1 MOL       0.1424
     12 C          13.2421   23.9104    6.5833 C.2         1 MOL       0.2051
     13 O          13.7905   23.7510    7.6767 O.2         1 MOL      -0.3943
     14 CB         13.4238   25.2977    4.4783 C.3         1 MOL       0.0406
     15 CG         12.2690   24.8241    3.6825 C.2         1 MOL       0.0393
     16 OD1        11.1953   25.6235    3.4904 O.co2       1 MOL      -0.5688
     17 OD2        12.2923   23.6374    3.0333 O.co2       1 MOL      -0.5688
     18 N          11.9259   23.7924    6.4952 N.am        1 MOL      -0.2694
     19 CA         11.0003   23.4754    7.5506 C.3         1 MOL       0.0946
     20 C           9.9360   22.6928    6.8887 C.2         1 MOL       0.0601
     21 O           9.0850   23.2705    6.0007 O.co2       1 MOL      -0.5666
     22 CB         10.5773   24.7523    8.3744 C.3         1 MOL      -0.0156
     23 CG          9.0572   25.1039    8.5556 C.3         1 MOL      -0.0431
     24 CD1         8.7817   25.8845    9.8776 C.3         1 MOL      -0.0625
     25 CD2         8.4959   25.9292    7.3617 C.3         1 MOL      -0.0625
     26 OXT         9.9664   21.3305    6.9332 O.co2       1 MOL      -0.5666
     27 H1         17.3987   20.0235    3.8498 H           1 MOL       0.2015
     28 H2         16.8621   20.0149    5.4285 H           1 MOL       0.2015
     29 H3         17.5250   21.4050    4.7805 H           1 MOL       0.2015
     30 H4         15.7910   21.5227    3.1809 H           1 MOL       0.1099
     31 H5         15.3916   18.9158    3.5849 H           1 MOL       0.0363
     32 H6         14.1951   19.9460    2.8508 H           1 MOL       0.0363
     33 H7         14.1938   19.0966    5.8003 H           1 MOL       0.0434
     34 H8         13.2596   18.3336    4.5200 H           1 MOL       0.0434
     35 H9         14.5676   23.2771    3.6658 H           1 MOL       0.1886
     36 H10        14.9944   24.7083    5.7995 H           1 MOL       0.0819
     37 H11        14.1805   25.6356    3.7704 H           1 MOL       0.0478
     38 H12        13.1259   26.1696    5.0698 H           1 MOL       0.0478
     39 H13        11.5401   23.9405    5.6180 H           1 MOL       0.1875
     40 H14        11.5066   22.7900    8.2355 H           1 MOL       0.0726
     41 H15        11.0834   25.6362    7.9710 H           1 MOL       0.0308
     42 H16        11.0064   24.6186    9.3709 H           1 MOL       0.0308
     43 H17         8.4794   24.1800    8.6174 H           1 MOL       0.0297
     44 H18         7.7165   26.0872    9.9881 H           1 MOL       0.0232
     45 H19         9.3189   26.8328    9.8860 H           1 MOL       0.0232
     46 H20         9.1011   25.2971   10.7338 H           1 MOL       0.0232
     47 H21         8.7284   25.4452    6.4066 H           1 MOL       0.0232
     48 H22         8.9263   26.9362    7.3419 H           1 MOL       0.0232
     49 H23         7.4072   26.0186    7.4368 H           1 MOL       0.0232
@<TRIPOS>BOND
     1     3     2   1
     2     2     5   1
     3     2     1   1
     4     5     6   1
     5     6     7   1
     6     7     8  ar
     7     7     9  ar
     8     3     4   2
     9    12    11   1
    10    11    14   1
    11    11    10   1
    12    14    15   1
    13    15    16  ar
    14    15    17  ar
    15    12    13   2
    16    19    20   1
    17    19    22   1
    18    18    19   1
    19    22    23   1
    20    23    25   1
    21    23    24   1
    22    20    26  ar
    23    20    21  ar
    24    10     3  am
    25    12    18  am
    26     1    27   1
    27     1    28   1
    28     1    29   1
    29     2    30   1
    30     5    31   1
    31     5    32   1
    32     6    33   1
    33     6    34   1
    34    10    35   1
    35    11    36   1
    36    14    37   1
    37    14    38   1
    38    18    39   1
    39    19    40   1
    40    22    41   1
    41    22    42   1
    42    23    43   1
    43    24    44   1
    44    24    45   1
    45    24    46   1
    46    25    47   1
    47    25    48   1
    48    25    49   1
@<TRIPOS>SUBSTRUCTURE
     1  MOL      2

