@<TRIPOS>MOLECULE
1a30_ligand_053
    49    48
SMALL
GAST_HUCK
****
This file was generated by PARSER (from files_GN.cpp)

@<TRIPOS>ATOM
      1 N           8.7506   24.7046    6.8355 N.4         1 MOL       0.2380
      2 CA          9.4387   25.2097    5.6356 C.3         1 MOL       0.0665
      3 C           8.6704   26.3530    5.1445 C.2         1 MOL       0.2269
      4 O           9.0404   27.4787    5.4536 O.2         1 MOL      -0.3907
      5 CB          9.6380   24.0612    4.5928 C.3         1 MOL       0.0194
      6 CG         10.8576   23.1229    4.8245 C.3         1 MOL       0.0075
      7 CD         10.9412   22.5229    6.1712 C.2         1 MOL       0.0351
      8 OE1        10.7750   21.1936    6.3524 O.co2       1 MOL      -0.5690
      9 OE2        11.5138   23.2201    7.1779 O.co2       1 MOL      -0.5690
     10 N           7.5625   26.1750    4.4285 N.am        1 MOL      -0.2595
     11 CA          6.6610   27.1784    3.9136 C.3         1 MOL       0.1424
     12 C           5.2892   26.8222    4.2740 C.2         1 MOL       0.2051
     13 O           4.8948   25.6822    4.0567 O.2         1 MOL      -0.3943
     14 CB          6.7972   27.3111    2.3644 C.3         1 MOL       0.0406
     15 CG          8.0158   27.9958    1.8836 C.2         1 MOL       0.0393
     16 OD1         8.2495   28.0689    0.5546 O.co2       1 MOL      -0.5688
     17 OD2         8.8163   28.7205    2.6977 O.co2       1 MOL      -0.5688
     18 N           4.4465   27.7585    4.7023 N.am        1 MOL      -0.2694
     19 CA          3.0549   27.5994    5.0253 C.3         1 MOL       0.0946
     20 C           2.2341   27.9284    3.8343 C.2         1 MOL       0.0601
     21 O           2.5389   27.3733    2.6403 O.co2       1 MOL      -0.5666
     22 CB          2.7151   28.4455    6.2943 C.3         1 MOL      -0.0156
     23 CG          3.0213   29.9860    6.1850 C.3         1 MOL      -0.0431
     24 CD1         1.8192   30.8618    6.6360 C.3         1 MOL      -0.0625
     25 CD2         4.3078   30.3935    6.9592 C.3         1 MOL      -0.0625
     26 OXT         0.9971   28.4627    3.9534 O.co2       1 MOL      -0.5666
     27 H1          9.2930   23.9535    7.2641 H           1 MOL       0.2015
     28 H2          7.8307   24.3435    6.5748 H           1 MOL       0.2015
     29 H3          8.6415   25.4617    7.5150 H           1 MOL       0.2015
     30 H4         10.4290   25.5550    5.9523 H           1 MOL       0.1099
     31 H5          9.7715   24.5074    3.6018 H           1 MOL       0.0363
     32 H6          8.7294   23.4517    4.5481 H           1 MOL       0.0363
     33 H7         11.7775   23.6813    4.6339 H           1 MOL       0.0434
     34 H8         10.8119   22.3187    4.0845 H           1 MOL       0.0434
     35 H9          7.3380   25.2563    4.2122 H           1 MOL       0.1886
     36 H10         6.8921   28.1569    4.3488 H           1 MOL       0.0819
     37 H11         5.9504   27.8825    1.9755 H           1 MOL       0.0478
     38 H12         6.7607   26.3186    1.9077 H           1 MOL       0.0478
     39 H13         4.7934   28.6623    4.7441 H           1 MOL       0.1875
     40 H14         2.8459   26.5533    5.2733 H           1 MOL       0.0726
     41 H15         3.2630   28.0180    7.1403 H           1 MOL       0.0308
     42 H16         1.6577   28.2842    6.5244 H           1 MOL       0.0308
     43 H17         3.1979   30.2378    5.1344 H           1 MOL       0.0297
     44 H18         2.0457   31.9205    6.4953 H           1 MOL       0.0232
     45 H19         1.5886   30.6888    7.6891 H           1 MOL       0.0232
     46 H20         0.9349   30.6246    6.0407 H           1 MOL       0.0232
     47 H21         5.1526   29.7705    6.6599 H           1 MOL       0.0232
     48 H22         4.1613   30.2826    8.0362 H           1 MOL       0.0232
     49 H23         4.5640   31.4337    6.7468 H           1 MOL       0.0232
@<TRIPOS>BOND
     1     3     2   1
     2     2     5   1
     3     2     1   1
     4     5     6   1
     5     6     7   1
     6     7     8  ar
     7     7     9  ar
     8     3     4   2
     9    12    11   1
    10    11    14   1
    11    11    10   1
    12    14    15   1
    13    15    16  ar
    14    15    17  ar
    15    12    13   2
    16    19    20   1
    17    19    22   1
    18    18    19   1
    19    22    23   1
    20    23    25   1
    21    23    24   1
    22    20    26  ar
    23    20    21  ar
    24    10     3  am
    25    12    18  am
    26     1    27   1
    27     1    28   1
    28     1    29   1
    29     2    30   1
    30     5    31   1
    31     5    32   1
    32     6    33   1
    33     6    34   1
    34    10    35   1
    35    11    36   1
    36    14    37   1
    37    14    38   1
    38    18    39   1
    39    19    40   1
    40    22    41   1
    41    22    42   1
    42    23    43   1
    43    24    44   1
    44    24    45   1
    45    24    46   1
    46    25    47   1
    47    25    48   1
    48    25    49   1
@<TRIPOS>SUBSTRUCTURE
     1  MOL      2

