@<TRIPOS>MOLECULE
1a30_ligand_077
    49    48
SMALL
GAST_HUCK
****
This file was generated by PARSER (from files_GN.cpp)

@<TRIPOS>ATOM
      1 N          14.4192   19.9418    6.2770 N.4         1 MOL       0.2380
      2 CA         13.6014   19.5246    5.1282 C.3         1 MOL       0.0665
      3 C          14.1835   18.3180    4.5563 C.2         1 MOL       0.2269
      4 O          13.5673   17.2623    4.6353 O.2         1 MOL      -0.3907
      5 CB         13.4425   20.6709    4.0808 C.3         1 MOL       0.0194
      6 CG         12.3914   21.7429    4.4871 C.3         1 MOL       0.0075
      7 CD         12.0231   22.6350    3.3708 C.2         1 MOL       0.0351
      8 OE1        11.5514   22.1144    2.2154 O.co2       1 MOL      -0.5690
      9 OE2        11.9961   23.9769    3.5317 O.co2       1 MOL      -0.5690
     10 N          15.3609   18.3745    3.9479 N.am        1 MOL      -0.2595
     11 CA         16.0553   17.2966    3.2928 C.3         1 MOL       0.1424
     12 C          17.3812   17.1734    3.8833 C.2         1 MOL       0.2051
     13 O          18.3863   17.3949    3.2169 O.2         1 MOL      -0.3943
     14 CB         15.9777   17.5035    1.7469 C.3         1 MOL       0.0406
     15 CG         16.3905   18.8368    1.2509 C.2         1 MOL       0.0393
     16 OD1        17.5484   19.3955    1.6671 O.co2       1 MOL      -0.5688
     17 OD2        15.9625   19.2194    0.0275 O.co2       1 MOL      -0.5688
     18 N          17.4621   16.8370    5.1683 N.am        1 MOL      -0.2694
     19 CA         18.6404   16.7236    5.9841 C.3         1 MOL       0.0946
     20 C          19.2842   18.0399    6.2236 C.2         1 MOL       0.0601
     21 O          19.2828   19.0316    5.3030 O.co2       1 MOL      -0.5666
     22 CB         19.6717   15.6567    5.4881 C.3         1 MOL      -0.0156
     23 CG         19.1051   14.2001    5.3354 C.3         1 MOL      -0.0431
     24 CD1        19.8965   13.3797    4.2762 C.3         1 MOL      -0.0625
     25 CD2        19.0693   13.4313    6.6871 C.3         1 MOL      -0.0625
     26 OXT        20.0581   18.2210    7.3163 O.co2       1 MOL      -0.5666
     27 H1         13.9405   20.6828    6.7918 H           1 MOL       0.2015
     28 H2         15.3269   20.2799    5.9528 H           1 MOL       0.2015
     29 H3         14.5627   19.1358    6.8895 H           1 MOL       0.2015
     30 H4         12.6110   19.2870    5.5262 H           1 MOL       0.1099
     31 H5         13.1422   20.2303    3.1245 H           1 MOL       0.0363
     32 H6         14.4065   21.1666    3.9238 H           1 MOL       0.0363
     33 H7         12.7857   22.3377    5.3171 H           1 MOL       0.0434
     34 H8         11.4734   21.2579    4.8301 H           1 MOL       0.0434
     35 H9         15.7800   19.2475    3.8914 H           1 MOL       0.1886
     36 H10        15.5554   16.3405    3.4799 H           1 MOL       0.0819
     37 H11        14.9322   17.3561    1.4568 H           1 MOL       0.0478
     38 H12        16.5579   16.7277    1.2357 H           1 MOL       0.0478
     39 H13        16.6180   16.6611    5.6192 H           1 MOL       0.1875
     40 H14        18.2751   16.3848    6.9589 H           1 MOL       0.0726
     41 H15        20.5189   15.6251    6.1797 H           1 MOL       0.0308
     42 H16        20.0779   15.9894    4.5316 H           1 MOL       0.0308
     43 H17        18.0747   14.2581    4.9676 H           1 MOL       0.0297
     44 H18        19.4733   12.3753    4.1736 H           1 MOL       0.0232
     45 H19        20.9491   13.2918    4.5612 H           1 MOL       0.0232
     46 H20        19.8360   13.8672    3.2991 H           1 MOL       0.0232
     47 H21        18.4847   13.9791    7.4276 H           1 MOL       0.0232
     48 H22        20.0823   13.2894    7.0747 H           1 MOL       0.0232
     49 H23        18.6072   12.4488    6.5535 H           1 MOL       0.0232
@<TRIPOS>BOND
     1     3     2   1
     2     2     5   1
     3     2     1   1
     4     5     6   1
     5     6     7   1
     6     7     8  ar
     7     7     9  ar
     8     3     4   2
     9    12    11   1
    10    11    14   1
    11    11    10   1
    12    14    15   1
    13    15    16  ar
    14    15    17  ar
    15    12    13   2
    16    19    20   1
    17    19    22   1
    18    18    19   1
    19    22    23   1
    20    23    25   1
    21    23    24   1
    22    20    26  ar
    23    20    21  ar
    24    10     3  am
    25    12    18  am
    26     1    27   1
    27     1    28   1
    28     1    29   1
    29     2    30   1
    30     5    31   1
    31     5    32   1
    32     6    33   1
    33     6    34   1
    34    10    35   1
    35    11    36   1
    36    14    37   1
    37    14    38   1
    38    18    39   1
    39    19    40   1
    40    22    41   1
    41    22    42   1
    42    23    43   1
    43    24    44   1
    44    24    45   1
    45    24    46   1
    46    25    47   1
    47    25    48   1
    48    25    49   1
@<TRIPOS>SUBSTRUCTURE
     1  MOL      2

