@<TRIPOS>MOLECULE
1a30_ligand_014
    49    48
SMALL
GAST_HUCK
****
This file was generated by PARSER (from files_GN.cpp)

@<TRIPOS>ATOM
      1 N          14.3124   24.4992    4.7310 N.4         1 MOL       0.2380
      2 CA         13.0497   24.2089    5.4368 C.3         1 MOL       0.0665
      3 C          13.3558   23.9706    6.8417 C.2         1 MOL       0.2269
      4 O          12.9128   24.7332    7.6939 O.2         1 MOL      -0.3907
      5 CB         12.2913   23.0381    4.7321 C.3         1 MOL       0.0194
      6 CG         10.7505   23.0426    4.9287 C.3         1 MOL       0.0075
      7 CD         10.3297   22.7340    6.3047 C.2         1 MOL       0.0351
      8 OE1         9.8947   23.7108    7.1323 O.co2       1 MOL      -0.5690
      9 OE2        10.4152   21.4707    6.7762 O.co2       1 MOL      -0.5690
     10 N          14.1570   22.9664    7.1624 N.am        1 MOL      -0.2595
     11 CA         14.6519   22.5949    8.4533 C.3         1 MOL       0.1424
     12 C          15.6762   21.5895    8.1832 C.2         1 MOL       0.2051
     13 O          15.3847   20.3953    8.2329 O.2         1 MOL      -0.3943
     14 CB         13.4998   22.1279    9.3924 C.3         1 MOL       0.0406
     15 CG         13.9731   21.4660   10.6224 C.2         1 MOL       0.0393
     16 OD1        14.4361   22.1805   11.6769 O.co2       1 MOL      -0.5688
     17 OD2        13.9206   20.1165   10.7247 O.co2       1 MOL      -0.5688
     18 N          16.8863   21.9892    7.8001 N.am        1 MOL      -0.2694
     19 CA         18.0392   21.1884    7.4867 C.3         1 MOL       0.0946
     20 C          17.9723   20.5940    6.1253 C.2         1 MOL       0.0601
     21 O          19.1104   20.2147    5.4928 O.co2       1 MOL      -0.5666
     22 CB         18.3752   20.1428    8.6102 C.3         1 MOL      -0.0156
     23 CG         19.8739   20.0031    9.0377 C.3         1 MOL      -0.0431
     24 CD1        20.4013   21.2687    9.7819 C.3         1 MOL      -0.0625
     25 CD2        20.0678   18.7551    9.9337 C.3         1 MOL      -0.0625
     26 OXT        16.8010   20.1484    5.6091 O.co2       1 MOL      -0.5666
     27 H1         14.1390   24.6259    3.7302 H           1 MOL       0.2015
     28 H2         14.9783   23.7330    4.8578 H           1 MOL       0.2015
     29 H3         14.7109   25.3593    5.1114 H           1 MOL       0.2015
     30 H4         12.4422   25.1171    5.3340 H           1 MOL       0.1099
     31 H5         12.6980   22.0709    5.0434 H           1 MOL       0.0363
     32 H6         12.4663   23.1125    3.6542 H           1 MOL       0.0363
     33 H7         10.3008   22.2988    4.2641 H           1 MOL       0.0434
     34 H8         10.3558   24.0178    4.6357 H           1 MOL       0.0434
     35 H9         14.4797   22.4380    6.4181 H           1 MOL       0.1886
     36 H10        15.1225   23.4678    8.9231 H           1 MOL       0.0819
     37 H11        12.8521   21.4391    8.8488 H           1 MOL       0.0478
     38 H12        12.8773   22.9747    9.6962 H           1 MOL       0.0478
     39 H13        17.0263   22.9526    7.7794 H           1 MOL       0.1875
     40 H14        18.8563   21.9151    7.4367 H           1 MOL       0.0726
     41 H15        18.0075   19.1670    8.2857 H           1 MOL       0.0308
     42 H16        17.8080   20.3932    9.5073 H           1 MOL       0.0308
     43 H17        20.4881   19.8692    8.1398 H           1 MOL       0.0297
     44 H18        21.4399   21.1243   10.1016 H           1 MOL       0.0232
     45 H19        19.7947   21.4725   10.6726 H           1 MOL       0.0232
     46 H20        20.3751   22.1488    9.1363 H           1 MOL       0.0232
     47 H21        19.8093   17.8505    9.3830 H           1 MOL       0.0232
     48 H22        19.4336   18.8156   10.8198 H           1 MOL       0.0232
     49 H23        21.1033   18.6591   10.2614 H           1 MOL       0.0232
@<TRIPOS>BOND
     1     3     2   1
     2     2     5   1
     3     2     1   1
     4     5     6   1
     5     6     7   1
     6     7     8  ar
     7     7     9  ar
     8     3     4   2
     9    12    11   1
    10    11    14   1
    11    11    10   1
    12    14    15   1
    13    15    16  ar
    14    15    17  ar
    15    12    13   2
    16    19    20   1
    17    19    22   1
    18    18    19   1
    19    22    23   1
    20    23    25   1
    21    23    24   1
    22    20    26  ar
    23    20    21  ar
    24    10     3  am
    25    12    18  am
    26     1    27   1
    27     1    28   1
    28     1    29   1
    29     2    30   1
    30     5    31   1
    31     5    32   1
    32     6    33   1
    33     6    34   1
    34    10    35   1
    35    11    36   1
    36    14    37   1
    37    14    38   1
    38    18    39   1
    39    19    40   1
    40    22    41   1
    41    22    42   1
    42    23    43   1
    43    24    44   1
    44    24    45   1
    45    24    46   1
    46    25    47   1
    47    25    48   1
    48    25    49   1
@<TRIPOS>SUBSTRUCTURE
     1  MOL      2

