@<TRIPOS>MOLECULE
1a30_ligand_037
    49    48
SMALL
GAST_HUCK
****
This file was generated by PARSER (from files_GN.cpp)

@<TRIPOS>ATOM
      1 N           4.4005   31.9481    6.4956 N.4         1 MOL       0.2380
      2 CA          3.0048   31.7241    6.9006 C.3         1 MOL       0.0665
      3 C           2.9930   30.6175    7.8531 C.2         1 MOL       0.2269
      4 O           3.1091   30.8797    9.0423 O.2         1 MOL      -0.3907
      5 CB          2.0946   31.5659    5.6451 C.3         1 MOL       0.0194
      6 CG          0.6439   31.1056    5.9580 C.3         1 MOL       0.0075
      7 CD         -0.2013   31.0698    4.7501 C.2         1 MOL       0.0351
      8 OE1        -0.6535   29.8937    4.2588 O.co2       1 MOL      -0.5690
      9 OE2        -0.5235   32.2115    4.1001 O.co2       1 MOL      -0.5690
     10 N           2.9212   29.3591    7.4374 N.am        1 MOL      -0.2595
     11 CA          2.9627   28.1706    8.2456 C.3         1 MOL       0.1424
     12 C           4.1349   27.4132    7.8139 C.2         1 MOL       0.2051
     13 O           4.0126   26.2767    7.3793 O.2         1 MOL      -0.3943
     14 CB          1.6003   27.4245    8.1018 C.3         1 MOL       0.0406
     15 CG          0.4645   28.0320    8.8311 C.2         1 MOL       0.0393
     16 OD1        -0.7732   27.5257    8.6554 O.co2       1 MOL      -0.5688
     17 OD2         0.6680   28.8006    9.9282 O.co2       1 MOL      -0.5688
     18 N           5.3307   27.9919    7.8806 N.am        1 MOL      -0.2694
     19 CA          6.5962   27.5569    7.3501 C.3         1 MOL       0.0946
     20 C           6.5698   27.5076    5.8686 C.2         1 MOL       0.0601
     21 O           5.6467   26.7740    5.2074 O.co2       1 MOL      -0.5666
     22 CB          7.1488   26.2319    7.9752 C.3         1 MOL      -0.0156
     23 CG          8.0538   26.4178    9.2424 C.3         1 MOL      -0.0431
     24 CD1         8.4291   25.0332    9.8362 C.3         1 MOL      -0.0625
     25 CD2         9.3433   27.2423    8.9432 C.3         1 MOL      -0.0625
     26 OXT         7.5705   28.0744    5.1461 O.co2       1 MOL      -0.5666
     27 H1          4.4561   32.8145    5.9557 H           1 MOL       0.2015
     28 H2          4.7372   31.1692    5.9190 H           1 MOL       0.2015
     29 H3          4.9830   32.0380    7.3334 H           1 MOL       0.2015
     30 H4          2.6868   32.6379    7.4171 H           1 MOL       0.1099
     31 H5          2.5506   30.8575    4.9460 H           1 MOL       0.0363
     32 H6          2.0505   32.5369    5.1386 H           1 MOL       0.0363
     33 H7          0.1887   31.7867    6.6824 H           1 MOL       0.0434
     34 H8          0.6671   30.1065    6.4015 H           1 MOL       0.0434
     35 H9          2.8153   29.2153    6.4847 H           1 MOL       0.1886
     36 H10         3.1002   28.3977    9.3107 H           1 MOL       0.0819
     37 H11         1.7121   26.3949    8.4583 H           1 MOL       0.0478
     38 H12         1.3277   27.3838    7.0410 H           1 MOL       0.0478
     39 H13         5.3496   28.8606    8.3078 H           1 MOL       0.1875
     40 H14         7.2936   28.3548    7.6030 H           1 MOL       0.0726
     41 H15         7.7329   25.6855    7.2233 H           1 MOL       0.0308
     42 H16         6.2947   25.5948    8.2278 H           1 MOL       0.0308
     43 H17         7.4754   26.9505   10.0069 H           1 MOL       0.0297
     44 H18         9.0431   25.1632   10.7313 H           1 MOL       0.0232
     45 H19         8.9873   24.4373    9.1063 H           1 MOL       0.0232
     46 H20         7.5306   24.4794   10.1274 H           1 MOL       0.0232
     47 H21         9.0931   28.2715    8.6725 H           1 MOL       0.0232
     48 H22         9.9087   26.7823    8.1254 H           1 MOL       0.0232
     49 H23         9.9828   27.2703    9.8297 H           1 MOL       0.0232
@<TRIPOS>BOND
     1     3     2   1
     2     2     5   1
     3     2     1   1
     4     5     6   1
     5     6     7   1
     6     7     8  ar
     7     7     9  ar
     8     3     4   2
     9    12    11   1
    10    11    14   1
    11    11    10   1
    12    14    15   1
    13    15    16  ar
    14    15    17  ar
    15    12    13   2
    16    19    20   1
    17    19    22   1
    18    18    19   1
    19    22    23   1
    20    23    25   1
    21    23    24   1
    22    20    26  ar
    23    20    21  ar
    24    10     3  am
    25    12    18  am
    26     1    27   1
    27     1    28   1
    28     1    29   1
    29     2    30   1
    30     5    31   1
    31     5    32   1
    32     6    33   1
    33     6    34   1
    34    10    35   1
    35    11    36   1
    36    14    37   1
    37    14    38   1
    38    18    39   1
    39    19    40   1
    40    22    41   1
    41    22    42   1
    42    23    43   1
    43    24    44   1
    44    24    45   1
    45    24    46   1
    46    25    47   1
    47    25    48   1
    48    25    49   1
@<TRIPOS>SUBSTRUCTURE
     1  MOL      2

