@<TRIPOS>MOLECULE
1a30_ligand_032
    49    48
SMALL
GAST_HUCK
****
This file was generated by PARSER (from files_GN.cpp)

@<TRIPOS>ATOM
      1 N          14.2889   24.7893    4.8472 N.4         1 MOL       0.2380
      2 CA         15.0585   23.6926    5.4646 C.3         1 MOL       0.0665
      3 C          14.9023   22.4997    4.6559 C.2         1 MOL       0.2269
      4 O          15.7072   22.2787    3.7442 O.2         1 MOL      -0.3907
      5 CB         14.7595   23.5070    6.9882 C.3         1 MOL       0.0194
      6 CG         13.2680   23.6125    7.4787 C.3         1 MOL       0.0075
      7 CD         12.6826   22.3310    7.9292 C.2         1 MOL       0.0351
      8 OE1        11.6210   21.7939    7.2646 O.co2       1 MOL      -0.5690
      9 OE2        13.0763   21.7828    9.1070 O.co2       1 MOL      -0.5690
     10 N          13.7907   21.7823    4.7435 N.am        1 MOL      -0.2595
     11 CA         13.3846   20.7201    3.8693 C.3         1 MOL       0.1424
     12 C          11.9282   20.7675    3.8644 C.2         1 MOL       0.2051
     13 O          11.3280   20.5525    4.9117 O.2         1 MOL      -0.3943
     14 CB         13.9771   19.3458    4.3311 C.3         1 MOL       0.0406
     15 CG         14.1366   18.3836    3.2256 C.2         1 MOL       0.0393
     16 OD1        14.9118   18.6999    2.1556 O.co2       1 MOL      -0.5688
     17 OD2        13.7490   17.0889    3.3669 O.co2       1 MOL      -0.5688
     18 N          11.2866   21.2017    2.7854 N.am        1 MOL      -0.2694
     19 CA          9.8704   21.4325    2.6571 C.3         1 MOL       0.0946
     20 C           9.4842   21.6361    1.2497 C.2         1 MOL       0.0601
     21 O          10.1927   22.4509    0.4330 O.co2       1 MOL      -0.5666
     22 CB          9.3769   22.6196    3.5562 C.3         1 MOL      -0.0156
     23 CG          9.7167   24.0853    3.1076 C.3         1 MOL      -0.0431
     24 CD1         9.2840   25.0965    4.2141 C.3         1 MOL      -0.0625
     25 CD2        11.2134   24.3142    2.7355 C.3         1 MOL      -0.0625
     26 OXT         8.3589   21.0574    0.7688 O.co2       1 MOL      -0.5666
     27 H1         14.4691   25.6414    5.3760 H           1 MOL       0.2015
     28 H2         13.2857   24.5641    4.8524 H           1 MOL       0.2015
     29 H3         14.6174   24.9265    3.8775 H           1 MOL       0.2015
     30 H4         16.1009   24.0077    5.4066 H           1 MOL       0.1099
     31 H5         15.3253   24.2968    7.5127 H           1 MOL       0.0363
     32 H6         15.1990   22.5566    7.3261 H           1 MOL       0.0363
     33 H7         12.6406   24.0531    6.6887 H           1 MOL       0.0434
     34 H8         13.2402   24.3011    8.3391 H           1 MOL       0.0434
     35 H9         13.1420   22.0638    5.4207 H           1 MOL       0.1886
     36 H10        13.7677   20.9503    2.8636 H           1 MOL       0.0819
     37 H11        13.3396   18.9059    5.1058 H           1 MOL       0.0478
     38 H12        14.9663   19.4890    4.7745 H           1 MOL       0.0478
     39 H13        11.8241   21.3824    1.9934 H           1 MOL       0.1875
     40 H14         9.3538   20.5261    2.9769 H           1 MOL       0.0726
     41 H15         9.7529   22.4715    4.5721 H           1 MOL       0.0308
     42 H16         8.2829   22.5486    3.6170 H           1 MOL       0.0308
     43 H17         9.1162   24.3242    2.2213 H           1 MOL       0.0297
     44 H18         9.3849   26.1304    3.8513 H           1 MOL       0.0232
     45 H19         9.9086   24.9784    5.1117 H           1 MOL       0.0232
     46 H20         8.2344   24.9371    4.4931 H           1 MOL       0.0232
     47 H21        11.4661   23.7323    1.8371 H           1 MOL       0.0232
     48 H22        11.8638   23.9978    3.5622 H           1 MOL       0.0232
     49 H23        11.3935   25.3735    2.5090 H           1 MOL       0.0232
@<TRIPOS>BOND
     1     3     2   1
     2     2     5   1
     3     2     1   1
     4     5     6   1
     5     6     7   1
     6     7     8  ar
     7     7     9  ar
     8     3     4   2
     9    12    11   1
    10    11    14   1
    11    11    10   1
    12    14    15   1
    13    15    16  ar
    14    15    17  ar
    15    12    13   2
    16    19    20   1
    17    19    22   1
    18    18    19   1
    19    22    23   1
    20    23    25   1
    21    23    24   1
    22    20    26  ar
    23    20    21  ar
    24    10     3  am
    25    12    18  am
    26     1    27   1
    27     1    28   1
    28     1    29   1
    29     2    30   1
    30     5    31   1
    31     5    32   1
    32     6    33   1
    33     6    34   1
    34    10    35   1
    35    11    36   1
    36    14    37   1
    37    14    38   1
    38    18    39   1
    39    19    40   1
    40    22    41   1
    41    22    42   1
    42    23    43   1
    43    24    44   1
    44    24    45   1
    45    24    46   1
    46    25    47   1
    47    25    48   1
    48    25    49   1
@<TRIPOS>SUBSTRUCTURE
     1  MOL      2

