@<TRIPOS>MOLECULE
1a30_ligand_070
    49    48
SMALL
GAST_HUCK
****
This file was generated by PARSER (from files_GN.cpp)

@<TRIPOS>ATOM
      1 N          13.3161   25.3613    4.0348 N.4         1 MOL       0.2380
      2 CA         13.1981   23.9134    4.2586 C.3         1 MOL       0.0665
      3 C          11.8001   23.5100    4.1841 C.2         1 MOL       0.2269
      4 O          11.4839   22.6805    3.3407 O.2         1 MOL      -0.3907
      5 CB         13.8528   23.5212    5.6249 C.3         1 MOL       0.0194
      6 CG         13.8568   21.9950    5.9755 C.3         1 MOL       0.0075
      7 CD         12.7253   21.2156    5.4323 C.2         1 MOL       0.0351
      8 OE1        11.6562   20.9036    6.2117 O.co2       1 MOL      -0.5690
      9 OE2        12.7766   20.7355    4.1655 O.co2       1 MOL      -0.5690
     10 N          10.9184   24.0102    5.0494 N.am        1 MOL      -0.2595
     11 CA          9.5997   23.5005    5.3407 C.3         1 MOL       0.1424
     12 C           8.5964   24.4880    4.9626 C.2         1 MOL       0.2051
     13 O           7.8761   24.2658    3.9901 O.2         1 MOL      -0.3943
     14 CB          9.4907   23.0265    6.8288 C.3         1 MOL       0.0406
     15 CG         10.4805   23.5868    7.7822 C.2         1 MOL       0.0393
     16 OD1        10.2662   24.7805    8.3939 O.co2       1 MOL      -0.5688
     17 OD2        11.6941   22.9868    7.9356 O.co2       1 MOL      -0.5688
     18 N           8.4039   25.6014    5.6601 N.am        1 MOL      -0.2694
     19 CA          7.3908   26.6026    5.4167 C.3         1 MOL       0.0946
     20 C           7.6475   27.2607    4.1118 C.2         1 MOL       0.0601
     21 O           7.3193   26.6324    2.9576 O.co2       1 MOL      -0.5666
     22 CB          7.2969   27.6504    6.5809 C.3         1 MOL      -0.0156
     23 CG          6.5330   27.2431    7.8862 C.3         1 MOL      -0.0431
     24 CD1         4.9933   27.1665    7.6845 C.3         1 MOL      -0.0625
     25 CD2         7.0831   25.9574    8.5542 C.3         1 MOL      -0.0625
     26 OXT         8.3559   28.4122    4.0378 O.co2       1 MOL      -0.5666
     27 H1         14.2994   25.6542    3.9805 H           1 MOL       0.2015
     28 H2         12.8611   25.8843    4.7987 H           1 MOL       0.2015
     29 H3         12.8571   25.6068    3.1489 H           1 MOL       0.2015
     30 H4         13.7778   23.4306    3.4765 H           1 MOL       0.1099
     31 H5         13.3791   24.0677    6.4448 H           1 MOL       0.0363
     32 H6         14.9015   23.8298    5.6041 H           1 MOL       0.0363
     33 H7         13.8698   21.8884    7.0677 H           1 MOL       0.0434
     34 H8         14.8025   21.5585    5.6058 H           1 MOL       0.0434
     35 H9         11.2422   24.7117    5.6455 H           1 MOL       0.1886
     36 H10         9.4238   22.6112    4.7367 H           1 MOL       0.0819
     37 H11         9.6103   21.9383    6.8437 H           1 MOL       0.0478
     38 H12         8.4937   23.2355    7.2213 H           1 MOL       0.0478
     39 H13         8.9589   25.7440    6.4428 H           1 MOL       0.1875
     40 H14         6.4174   26.1099    5.3402 H           1 MOL       0.0726
     41 H15         6.8057   28.5586    6.2073 H           1 MOL       0.0308
     42 H16         8.3168   27.9486    6.8608 H           1 MOL       0.0308
     43 H17         6.7002   28.0483    8.5988 H           1 MOL       0.0297
     44 H18         4.4925   27.0143    8.6489 H           1 MOL       0.0232
     45 H19         4.7150   26.3397    7.0194 H           1 MOL       0.0232
     46 H20         4.6180   28.1061    7.2527 H           1 MOL       0.0232
     47 H21         8.1570   26.0622    8.7542 H           1 MOL       0.0232
     48 H22         6.9215   25.0814    7.9116 H           1 MOL       0.0232
     49 H23         6.5752   25.7798    9.5096 H           1 MOL       0.0232
@<TRIPOS>BOND
     1     3     2   1
     2     2     5   1
     3     2     1   1
     4     5     6   1
     5     6     7   1
     6     7     8  ar
     7     7     9  ar
     8     3     4   2
     9    12    11   1
    10    11    14   1
    11    11    10   1
    12    14    15   1
    13    15    16  ar
    14    15    17  ar
    15    12    13   2
    16    19    20   1
    17    19    22   1
    18    18    19   1
    19    22    23   1
    20    23    25   1
    21    23    24   1
    22    20    26  ar
    23    20    21  ar
    24    10     3  am
    25    12    18  am
    26     1    27   1
    27     1    28   1
    28     1    29   1
    29     2    30   1
    30     5    31   1
    31     5    32   1
    32     6    33   1
    33     6    34   1
    34    10    35   1
    35    11    36   1
    36    14    37   1
    37    14    38   1
    38    18    39   1
    39    19    40   1
    40    22    41   1
    41    22    42   1
    42    23    43   1
    43    24    44   1
    44    24    45   1
    45    24    46   1
    46    25    47   1
    47    25    48   1
    48    25    49   1
@<TRIPOS>SUBSTRUCTURE
     1  MOL      2

