@<TRIPOS>MOLECULE
1a30_ligand_042
    49    48
SMALL
GAST_HUCK
****
This file was generated by PARSER (from files_GN.cpp)

@<TRIPOS>ATOM
      1 N           8.3236   25.1249    4.8762 N.4         1 MOL       0.2380
      2 CA          7.5430   26.3647    4.6985 C.3         1 MOL       0.0665
      3 C           7.2171   26.9384    5.9980 C.2         1 MOL       0.2269
      4 O           7.5475   28.0955    6.2340 O.2         1 MOL      -0.3907
      5 CB          6.2757   26.0670    3.8423 C.3         1 MOL       0.0194
      6 CG          5.4723   27.3337    3.4377 C.3         1 MOL       0.0075
      7 CD          4.3287   27.0032    2.5684 C.2         1 MOL       0.0351
      8 OE1         3.1450   26.6300    3.1062 O.co2       1 MOL      -0.5690
      9 OE2         4.4474   27.0351    1.2235 O.co2       1 MOL      -0.5690
     10 N           6.5170   26.2196    6.8686 N.am        1 MOL      -0.2595
     11 CA          5.9772   26.6094    8.1435 C.3         1 MOL       0.1424
     12 C           4.6446   27.1828    7.9449 C.2         1 MOL       0.2051
     13 O           3.7556   26.4221    7.5864 O.2         1 MOL      -0.3943
     14 CB          7.0000   27.4295    8.9950 C.3         1 MOL       0.0406
     15 CG          8.1661   26.6326    9.4240 C.2         1 MOL       0.0393
     16 OD1         8.0173   25.3334    9.7727 O.co2       1 MOL      -0.5688
     17 OD2         9.3998   27.1794    9.4870 O.co2       1 MOL      -0.5688
     18 N           4.3923   28.4790    8.0979 N.am        1 MOL      -0.2694
     19 CA          3.2121   29.2242    7.7526 C.3         1 MOL       0.0946
     20 C           1.9669   28.5911    8.2458 C.2         1 MOL       0.0601
     21 O           1.3818   27.5820    7.5672 O.co2       1 MOL      -0.5666
     22 CB          3.1989   29.5755    6.2323 C.3         1 MOL      -0.0156
     23 CG          2.1140   30.5965    5.7460 C.3         1 MOL      -0.0431
     24 CD1         2.2880   32.0150    6.3540 C.3         1 MOL      -0.0625
     25 CD2         2.0993   30.6797    4.1912 C.3         1 MOL      -0.0625
     26 OXT         1.2708   29.1435    9.2631 O.co2       1 MOL      -0.5666
     27 H1          8.6089   24.7668    3.9635 H           1 MOL       0.2015
     28 H2          7.7506   24.4184    5.3487 H           1 MOL       0.2015
     29 H3          9.1575   25.3188    5.4349 H           1 MOL       0.2015
     30 H4          8.1791   27.0562    4.1333 H           1 MOL       0.1099
     31 H5          5.6239   25.3791    4.3912 H           1 MOL       0.0363
     32 H6          6.5931   25.5592    2.9271 H           1 MOL       0.0363
     33 H7          6.1335   28.0328    2.9178 H           1 MOL       0.0434
     34 H8          5.0844   27.8361    4.3262 H           1 MOL       0.0434
     35 H9          6.3078   25.3162    6.5947 H           1 MOL       0.1886
     36 H10         5.8113   25.6781    8.6917 H           1 MOL       0.0819
     37 H11         6.5114   27.8100    9.8918 H           1 MOL       0.0478
     38 H12         7.3503   28.2938    8.4284 H           1 MOL       0.0478
     39 H13         5.1210   29.0082    8.4423 H           1 MOL       0.1875
     40 H14         3.3256   30.1683    8.2897 H           1 MOL       0.0726
     41 H15         3.0762   28.6478    5.6683 H           1 MOL       0.0308
     42 H16         4.1834   29.9777    5.9772 H           1 MOL       0.0308
     43 H17         1.1310   30.2235    6.0521 H           1 MOL       0.0297
     44 H18         1.5450   32.7018    5.9387 H           1 MOL       0.0232
     45 H19         3.2845   32.4085    6.1413 H           1 MOL       0.0232
     46 H20         2.1453   31.9886    7.4365 H           1 MOL       0.0232
     47 H21         1.9136   29.6933    3.7594 H           1 MOL       0.0232
     48 H22         3.0566   31.0503    3.8143 H           1 MOL       0.0232
     49 H23         1.3085   31.3509    3.8484 H           1 MOL       0.0232
@<TRIPOS>BOND
     1     3     2   1
     2     2     5   1
     3     2     1   1
     4     5     6   1
     5     6     7   1
     6     7     8  ar
     7     7     9  ar
     8     3     4   2
     9    12    11   1
    10    11    14   1
    11    11    10   1
    12    14    15   1
    13    15    16  ar
    14    15    17  ar
    15    12    13   2
    16    19    20   1
    17    19    22   1
    18    18    19   1
    19    22    23   1
    20    23    25   1
    21    23    24   1
    22    20    26  ar
    23    20    21  ar
    24    10     3  am
    25    12    18  am
    26     1    27   1
    27     1    28   1
    28     1    29   1
    29     2    30   1
    30     5    31   1
    31     5    32   1
    32     6    33   1
    33     6    34   1
    34    10    35   1
    35    11    36   1
    36    14    37   1
    37    14    38   1
    38    18    39   1
    39    19    40   1
    40    22    41   1
    41    22    42   1
    42    23    43   1
    43    24    44   1
    44    24    45   1
    45    24    46   1
    46    25    47   1
    47    25    48   1
    48    25    49   1
@<TRIPOS>SUBSTRUCTURE
     1  MOL      2

