@<TRIPOS>MOLECULE
1a30_ligand_055
    49    48
SMALL
GAST_HUCK
****
This file was generated by PARSER (from files_GN.cpp)

@<TRIPOS>ATOM
      1 N          14.8316   24.4922    4.8575 N.4         1 MOL       0.2380
      2 CA         14.8193   23.1101    4.3371 C.3         1 MOL       0.0665
      3 C          13.5927   22.7440    3.6225 C.2         1 MOL       0.2269
      4 O          13.6068   21.7118    2.9658 O.2         1 MOL      -0.3907
      5 CB         15.1731   22.1181    5.4921 C.3         1 MOL       0.0194
      6 CG         13.9710   21.5164    6.2879 C.3         1 MOL       0.0075
      7 CD         13.1947   20.4666    5.5930 C.2         1 MOL       0.0351
      8 OE1        11.9891   20.0975    6.0866 O.co2       1 MOL      -0.5690
      9 OE2        13.7286   19.7049    4.6074 O.co2       1 MOL      -0.5690
     10 N          12.4997   23.4978    3.6593 N.am        1 MOL      -0.2595
     11 CA         11.1926   23.1475    3.1606 C.3         1 MOL       0.1424
     12 C          10.4698   24.3543    2.7569 C.2         1 MOL       0.2051
     13 O          10.7755   24.8577    1.6859 O.2         1 MOL      -0.3943
     14 CB         10.4619   22.2029    4.1667 C.3         1 MOL       0.0406
     15 CG         10.5622   22.5527    5.6015 C.2         1 MOL       0.0393
     16 OD1        10.9500   23.7703    6.0431 O.co2       1 MOL      -0.5688
     17 OD2        10.4248   21.5665    6.5190 O.co2       1 MOL      -0.5688
     18 N           9.5277   24.9239    3.5081 N.am        1 MOL      -0.2694
     19 CA          8.7672   26.1246    3.2452 C.3         1 MOL       0.0946
     20 C           8.8700   27.0354    4.4124 C.2         1 MOL       0.0601
     21 O           9.7486   26.8290    5.4162 O.co2       1 MOL      -0.5666
     22 CB          7.2934   25.7117    2.9206 C.3         1 MOL      -0.0156
     23 CG          6.4009   26.7551    2.1690 C.3         1 MOL      -0.0431
     24 CD1         6.8404   26.9695    0.6918 C.3         1 MOL      -0.0625
     25 CD2         4.9036   26.3358    2.2180 C.3         1 MOL      -0.0625
     26 OXT         8.1871   28.2001    4.4433 O.co2       1 MOL      -0.5666
     27 H1         15.6322   24.6112    5.4761 H           1 MOL       0.2015
     28 H2         13.9784   24.6761    5.3811 H           1 MOL       0.2015
     29 H3         14.9189   25.1539    4.0876 H           1 MOL       0.2015
     30 H4         15.6367   23.0579    3.6148 H           1 MOL       0.1099
     31 H5         15.7966   22.6491    6.2115 H           1 MOL       0.0363
     32 H6         15.8012   21.3104    5.0996 H           1 MOL       0.0363
     33 H7         13.2813   22.3212    6.5616 H           1 MOL       0.0434
     34 H8         14.3388   21.0758    7.2188 H           1 MOL       0.0434
     35 H9         12.5550   24.3359    4.1360 H           1 MOL       0.1886
     36 H10        11.3031   22.5667    2.2368 H           1 MOL       0.0819
     37 H11        10.8748   21.1958    4.0506 H           1 MOL       0.0478
     38 H12         9.4056   22.1387    3.9084 H           1 MOL       0.0478
     39 H13         9.3269   24.4961    4.3602 H           1 MOL       0.1875
     40 H14         9.1862   26.6463    2.3824 H           1 MOL       0.0726
     41 H15         6.8133   25.4462    3.8647 H           1 MOL       0.0308
     42 H16         7.3119   24.8018    2.3118 H           1 MOL       0.0308
     43 H17         6.4697   27.7195    2.6789 H           1 MOL       0.0297
     44 H18         6.1473   27.6397    0.1740 H           1 MOL       0.0232
     45 H19         6.8682   26.0188    0.1509 H           1 MOL       0.0232
     46 H20         7.8315   27.4259    0.6454 H           1 MOL       0.0232
     47 H21         4.5685   26.2367    3.2554 H           1 MOL       0.0232
     48 H22         4.7477   25.3809    1.7081 H           1 MOL       0.0232
     49 H23         4.2771   27.0945    1.7371 H           1 MOL       0.0232
@<TRIPOS>BOND
     1     3     2   1
     2     2     5   1
     3     2     1   1
     4     5     6   1
     5     6     7   1
     6     7     8  ar
     7     7     9  ar
     8     3     4   2
     9    12    11   1
    10    11    14   1
    11    11    10   1
    12    14    15   1
    13    15    16  ar
    14    15    17  ar
    15    12    13   2
    16    19    20   1
    17    19    22   1
    18    18    19   1
    19    22    23   1
    20    23    25   1
    21    23    24   1
    22    20    26  ar
    23    20    21  ar
    24    10     3  am
    25    12    18  am
    26     1    27   1
    27     1    28   1
    28     1    29   1
    29     2    30   1
    30     5    31   1
    31     5    32   1
    32     6    33   1
    33     6    34   1
    34    10    35   1
    35    11    36   1
    36    14    37   1
    37    14    38   1
    38    18    39   1
    39    19    40   1
    40    22    41   1
    41    22    42   1
    42    23    43   1
    43    24    44   1
    44    24    45   1
    45    24    46   1
    46    25    47   1
    47    25    48   1
    48    25    49   1
@<TRIPOS>SUBSTRUCTURE
     1  MOL      2

