@<TRIPOS>MOLECULE
1a30_ligand_002
    49    48
SMALL
GAST_HUCK
****
This file was generated by PARSER (from files_GN.cpp)

@<TRIPOS>ATOM
      1 N          14.6136   24.4366    4.7438 N.4         1 MOL       0.2380
      2 CA         13.3324   23.7214    4.8718 C.3         1 MOL       0.0665
      3 C          12.2850   24.5177    4.2406 C.2         1 MOL       0.2269
      4 O          12.0177   25.6268    4.6957 O.2         1 MOL      -0.3907
      5 CB         13.0381   23.3792    6.3659 C.3         1 MOL       0.0194
      6 CG         11.5485   23.1330    6.7485 C.3         1 MOL       0.0075
      7 CD         10.8963   22.0220    6.0432 C.2         1 MOL       0.0351
      8 OE1        10.2571   22.2418    4.8698 O.co2       1 MOL      -0.5690
      9 OE2        11.1529   20.7401    6.3761 O.co2       1 MOL      -0.5690
     10 N          11.5902   24.0021    3.2297 N.am        1 MOL      -0.2595
     11 CA         10.4091   24.5493    2.6250 C.3         1 MOL       0.1424
     12 C           9.3356   24.6513    3.6125 C.2         1 MOL       0.2051
     13 O           8.6210   23.6769    3.8372 O.2         1 MOL      -0.3943
     14 CB         10.0066   23.7618    1.3329 C.3         1 MOL       0.0406
     15 CG          9.7608   22.3119    1.5043 C.2         1 MOL       0.0393
     16 OD1        10.5854   21.5593    2.2698 O.co2       1 MOL      -0.5688
     17 OD2         8.8252   21.6678    0.7572 O.co2       1 MOL      -0.5688
     18 N           9.2207   25.7586    4.3433 N.am        1 MOL      -0.2694
     19 CA          8.3620   25.9749    5.4789 C.3         1 MOL       0.0946
     20 C           7.3134   26.9262    5.0615 C.2         1 MOL       0.0601
     21 O           6.3045   26.4841    4.2726 O.co2       1 MOL      -0.5666
     22 CB          9.2181   26.4696    6.6932 C.3         1 MOL      -0.0156
     23 CG          8.6584   26.2243    8.1378 C.3         1 MOL      -0.0431
     24 CD1         7.2295   26.8047    8.3640 C.3         1 MOL      -0.0625
     25 CD2         8.7416   24.7342    8.5842 C.3         1 MOL      -0.0625
     26 OXT         7.5631   28.2539    5.0507 O.co2       1 MOL      -0.5666
     27 H1         15.3725   23.8665    5.1282 H           1 MOL       0.2015
     28 H2         14.5733   25.3298    5.2405 H           1 MOL       0.2015
     29 H3         14.8082   24.6335    3.7580 H           1 MOL       0.2015
     30 H4         13.4601   22.7694    4.3356 H           1 MOL       0.1099
     31 H5         13.4019   24.2064    6.9850 H           1 MOL       0.0363
     32 H6         13.6173   22.4989    6.6398 H           1 MOL       0.0363
     33 H7         10.9754   24.0443    6.5704 H           1 MOL       0.0434
     34 H8         11.4952   22.9337    7.8248 H           1 MOL       0.0434
     35 H9         11.8906   23.1435    2.8961 H           1 MOL       0.1886
     36 H10        10.6629   25.5523    2.2634 H           1 MOL       0.0819
     37 H11        10.8095   23.8663    0.5958 H           1 MOL       0.0478
     38 H12         9.1136   24.2230    0.8976 H           1 MOL       0.0478
     39 H13         9.8170   26.4893    4.1151 H           1 MOL       0.1875
     40 H14         7.8751   25.0445    5.7717 H           1 MOL       0.0726
     41 H15         9.4052   27.5454    6.5796 H           1 MOL       0.0308
     42 H16        10.2013   25.9918    6.6501 H           1 MOL       0.0308
     43 H17         9.3206   26.7795    8.8142 H           1 MOL       0.0297
     44 H18         6.9731   26.7658    9.4280 H           1 MOL       0.0232
     45 H19         6.4846   26.2263    7.8082 H           1 MOL       0.0232
     46 H20         7.1875   27.8478    8.0398 H           1 MOL       0.0232
     47 H21         9.7694   24.3729    8.4997 H           1 MOL       0.0232
     48 H22         8.0977   24.1026    7.9729 H           1 MOL       0.0232
     49 H23         8.4304   24.6345    9.6269 H           1 MOL       0.0232
@<TRIPOS>BOND
     1     3     2   1
     2     2     5   1
     3     2     1   1
     4     5     6   1
     5     6     7   1
     6     7     8  ar
     7     7     9  ar
     8     3     4   2
     9    12    11   1
    10    11    14   1
    11    11    10   1
    12    14    15   1
    13    15    16  ar
    14    15    17  ar
    15    12    13   2
    16    19    20   1
    17    19    22   1
    18    18    19   1
    19    22    23   1
    20    23    25   1
    21    23    24   1
    22    20    26  ar
    23    20    21  ar
    24    10     3  am
    25    12    18  am
    26     1    27   1
    27     1    28   1
    28     1    29   1
    29     2    30   1
    30     5    31   1
    31     5    32   1
    32     6    33   1
    33     6    34   1
    34    10    35   1
    35    11    36   1
    36    14    37   1
    37    14    38   1
    38    18    39   1
    39    19    40   1
    40    22    41   1
    41    22    42   1
    42    23    43   1
    43    24    44   1
    44    24    45   1
    45    24    46   1
    46    25    47   1
    47    25    48   1
    48    25    49   1
@<TRIPOS>SUBSTRUCTURE
     1  MOL      2

