@<TRIPOS>MOLECULE
1a30_ligand_078
    49    48
SMALL
GAST_HUCK
****
This file was generated by PARSER (from files_GN.cpp)

@<TRIPOS>ATOM
      1 N          14.8795   19.8542    7.1069 N.4         1 MOL       0.2380
      2 CA         15.6205   20.1672    5.8696 C.3         1 MOL       0.0665
      3 C          15.5314   21.5688    5.5050 C.2         1 MOL       0.2269
      4 O          16.0352   21.9059    4.4252 O.2         1 MOL      -0.3907
      5 CB         15.1375   19.2108    4.7114 C.3         1 MOL       0.0194
      6 CG         16.1357   18.1099    4.2768 C.3         1 MOL       0.0075
      7 CD         17.4037   18.6497    3.7504 C.2         1 MOL       0.0351
      8 OE1        17.7109   18.5413    2.4342 O.co2       1 MOL      -0.5690
      9 OE2        18.3593   19.1087    4.5923 O.co2       1 MOL      -0.5690
     10 N          14.8065   22.4419    6.1976 N.am        1 MOL      -0.2595
     11 CA         14.6270   23.8393    5.9321 C.3         1 MOL       0.1424
     12 C          13.5509   24.3241    6.8041 C.2         1 MOL       0.2051
     13 O          13.7488   24.2436    8.0151 O.2         1 MOL      -0.3943
     14 CB         14.4525   24.1538    4.4071 C.3         1 MOL       0.0406
     15 CG         13.4065   23.3571    3.7404 C.2         1 MOL       0.0393
     16 OD1        12.2290   23.9475    3.3911 O.co2       1 MOL      -0.5688
     17 OD2        13.7291   22.1917    3.1383 O.co2       1 MOL      -0.5688
     18 N          12.4116   24.8386    6.3497 N.am        1 MOL      -0.2694
     19 CA         11.3335   25.3712    7.1572 C.3         1 MOL       0.0946
     20 C          10.6642   24.3249    7.9549 C.2         1 MOL       0.0601
     21 O          10.6485   23.0332    7.5752 O.co2       1 MOL      -0.5666
     22 CB         10.3427   26.2367    6.2933 C.3         1 MOL      -0.0156
     23 CG          8.9564   25.6433    5.8805 C.3         1 MOL      -0.0431
     24 CD1         8.0620   26.7383    5.2216 C.3         1 MOL      -0.0625
     25 CD2         9.0574   24.4148    4.9412 C.3         1 MOL      -0.0625
     26 OXT         9.9827   24.6657    9.0839 O.co2       1 MOL      -0.5666
     27 H1         14.9934   18.8602    7.3259 H           1 MOL       0.2015
     28 H2         13.8918   20.0532    6.9643 H           1 MOL       0.2015
     29 H3         15.2393   20.4113    7.8855 H           1 MOL       0.2015
     30 H4         16.6704   19.9679    6.1035 H           1 MOL       0.1099
     31 H5         14.8735   19.7829    3.8183 H           1 MOL       0.0363
     32 H6         14.2163   18.7151    5.0264 H           1 MOL       0.0363
     33 H7         15.6577   17.5182    3.4845 H           1 MOL       0.0434
     34 H8         16.3462   17.4283    5.1055 H           1 MOL       0.0434
     35 H9         14.3556   22.0940    6.9882 H           1 MOL       0.1886
     36 H10        15.5421   24.3519    6.2480 H           1 MOL       0.0819
     37 H11        15.4054   23.9538    3.9046 H           1 MOL       0.0478
     38 H12        14.2587   25.2247    4.2620 H           1 MOL       0.0478
     39 H13        12.3062   24.9083    5.3938 H           1 MOL       0.1875
     40 H14        11.8062   26.0602    7.8608 H           1 MOL       0.0726
     41 H15        10.8605   26.5641    5.3882 H           1 MOL       0.0308
     42 H16        10.1427   27.1453    6.8739 H           1 MOL       0.0308
     43 H17         8.4287   25.3265    6.7845 H           1 MOL       0.0297
     44 H18         7.0740   26.3352    4.9889 H           1 MOL       0.0232
     45 H19         8.5192   27.1028    4.2964 H           1 MOL       0.0232
     46 H20         7.9300   27.5827    5.9006 H           1 MOL       0.0232
     47 H21         9.6607   23.6263    5.3972 H           1 MOL       0.0232
     48 H22         9.5092   24.6949    3.9867 H           1 MOL       0.0232
     49 H23         8.0632   24.0032    4.7464 H           1 MOL       0.0232
@<TRIPOS>BOND
     1     3     2   1
     2     2     5   1
     3     2     1   1
     4     5     6   1
     5     6     7   1
     6     7     8  ar
     7     7     9  ar
     8     3     4   2
     9    12    11   1
    10    11    14   1
    11    11    10   1
    12    14    15   1
    13    15    16  ar
    14    15    17  ar
    15    12    13   2
    16    19    20   1
    17    19    22   1
    18    18    19   1
    19    22    23   1
    20    23    25   1
    21    23    24   1
    22    20    26  ar
    23    20    21  ar
    24    10     3  am
    25    12    18  am
    26     1    27   1
    27     1    28   1
    28     1    29   1
    29     2    30   1
    30     5    31   1
    31     5    32   1
    32     6    33   1
    33     6    34   1
    34    10    35   1
    35    11    36   1
    36    14    37   1
    37    14    38   1
    38    18    39   1
    39    19    40   1
    40    22    41   1
    41    22    42   1
    42    23    43   1
    43    24    44   1
    44    24    45   1
    45    24    46   1
    46    25    47   1
    47    25    48   1
    48    25    49   1
@<TRIPOS>SUBSTRUCTURE
     1  MOL      2

