@<TRIPOS>MOLECULE
1a30_ligand_004
    49    48
SMALL
GAST_HUCK
****
This file was generated by PARSER (from files_GN.cpp)

@<TRIPOS>ATOM
      1 N          13.6499   25.2610    4.6431 N.4         1 MOL       0.2380
      2 CA         12.7519   24.0871    4.6482 C.3         1 MOL       0.0665
      3 C          13.5417   22.8834    4.8961 C.2         1 MOL       0.2269
      4 O          13.2588   22.2063    5.8793 O.2         1 MOL      -0.3907
      5 CB         11.8938   24.0969    3.3398 C.3         1 MOL       0.0194
      6 CG         11.7219   22.7655    2.5439 C.3         1 MOL       0.0075
      7 CD         10.8115   21.7828    3.1806 C.2         1 MOL       0.0351
      8 OE1         9.8807   21.1445    2.4271 O.co2       1 MOL      -0.5690
      9 OE2        11.0340   21.3380    4.4340 O.co2       1 MOL      -0.5690
     10 N          14.5598   22.5436    4.1081 N.am        1 MOL      -0.2595
     11 CA         15.4593   21.4089    4.2355 C.3         1 MOL       0.1424
     12 C          15.0173   20.2388    3.4715 C.2         1 MOL       0.2051
     13 O          13.8473   20.1673    3.1017 O.2         1 MOL      -0.3943
     14 CB         15.8156   21.1006    5.7359 C.3         1 MOL       0.0406
     15 CG         17.1002   20.4183    5.9871 C.2         1 MOL       0.0393
     16 OD1        17.5203   20.3392    7.2700 O.co2       1 MOL      -0.5688
     17 OD2        18.0547   20.3974    5.0252 O.co2       1 MOL      -0.5688
     18 N          15.8802   19.2785    3.1279 N.am        1 MOL      -0.2694
     19 CA         15.6409   18.1498    2.2617 C.3         1 MOL       0.0946
     20 C          14.2887   17.5410    2.4256 C.2         1 MOL       0.0601
     21 O          13.3279   17.7646    1.4895 O.co2       1 MOL      -0.5666
     22 CB         16.7777   17.0631    2.2783 C.3         1 MOL      -0.0156
     23 CG         17.5648   16.6713    3.5879 C.3         1 MOL      -0.0431
     24 CD1        18.8796   17.4843    3.7574 C.3         1 MOL      -0.0625
     25 CD2        16.7359   16.6911    4.9008 C.3         1 MOL      -0.0625
     26 OXT        13.8938   16.9913    3.6022 O.co2       1 MOL      -0.5666
     27 H1         13.0934   26.1166    4.5669 H           1 MOL       0.2015
     28 H2         14.2678   25.2036    3.8279 H           1 MOL       0.2015
     29 H3         14.2066   25.3080    5.5046 H           1 MOL       0.2015
     30 H4         12.0640   24.2517    5.4852 H           1 MOL       0.1099
     31 H5         12.3116   24.8346    2.6378 H           1 MOL       0.0363
     32 H6         10.8860   24.4543    3.5997 H           1 MOL       0.0363
     33 H7         12.7067   22.3038    2.3920 H           1 MOL       0.0434
     34 H8         11.3280   23.0241    1.5510 H           1 MOL       0.0434
     35 H9         14.7232   23.1288    3.3513 H           1 MOL       0.1886
     36 H10        16.3693   21.7631    3.7468 H           1 MOL       0.0819
     37 H11        15.0193   20.4842    6.1659 H           1 MOL       0.0478
     38 H12        15.8391   22.0444    6.2836 H           1 MOL       0.0478
     39 H13        16.7877   19.3842    3.4512 H           1 MOL       0.1875
     40 H14        15.6542   18.5790    1.2494 H           1 MOL       0.0726
     41 H15        17.5184   17.3651    1.5249 H           1 MOL       0.0308
     42 H16        16.3444   16.1443    1.8746 H           1 MOL       0.0308
     43 H17        17.8898   15.6298    3.4559 H           1 MOL       0.0297
     44 H18        19.3842   17.2238    4.6958 H           1 MOL       0.0232
     45 H19        18.6708   18.5511    3.7637 H           1 MOL       0.0232
     46 H20        19.5690   17.2767    2.9412 H           1 MOL       0.0232
     47 H21        15.8775   16.0065    4.8066 H           1 MOL       0.0232
     48 H22        16.3811   17.7014    5.1141 H           1 MOL       0.0232
     49 H23        17.3444   16.3442    5.7369 H           1 MOL       0.0232
@<TRIPOS>BOND
     1     3     2   1
     2     2     5   1
     3     2     1   1
     4     5     6   1
     5     6     7   1
     6     7     8  ar
     7     7     9  ar
     8     3     4   2
     9    12    11   1
    10    11    14   1
    11    11    10   1
    12    14    15   1
    13    15    16  ar
    14    15    17  ar
    15    12    13   2
    16    19    20   1
    17    19    22   1
    18    18    19   1
    19    22    23   1
    20    23    25   1
    21    23    24   1
    22    20    26  ar
    23    20    21  ar
    24    10     3  am
    25    12    18  am
    26     1    27   1
    27     1    28   1
    28     1    29   1
    29     2    30   1
    30     5    31   1
    31     5    32   1
    32     6    33   1
    33     6    34   1
    34    10    35   1
    35    11    36   1
    36    14    37   1
    37    14    38   1
    38    18    39   1
    39    19    40   1
    40    22    41   1
    41    22    42   1
    42    23    43   1
    43    24    44   1
    44    24    45   1
    45    24    46   1
    46    25    47   1
    47    25    48   1
    48    25    49   1
@<TRIPOS>SUBSTRUCTURE
     1  MOL      2

