@<TRIPOS>MOLECULE
1a30_ligand_030
    49    48
SMALL
GAST_HUCK
****
This file was generated by PARSER (from files_GN.cpp)

@<TRIPOS>ATOM
      1 N           8.6896   24.4285    5.2503 N.4         1 MOL       0.2380
      2 CA          8.2149   25.6768    4.6174 C.3         1 MOL       0.0665
      3 C           7.8413   26.6155    5.6704 C.2         1 MOL       0.2269
      4 O           8.4183   27.6990    5.7423 O.2         1 MOL      -0.3907
      5 CB          7.0512   25.4306    3.6060 C.3         1 MOL       0.0194
      6 CG          7.2991   24.3083    2.5482 C.3         1 MOL       0.0075
      7 CD          7.0026   22.9497    3.0456 C.2         1 MOL       0.0351
      8 OE1         7.8889   21.9422    2.8804 O.co2       1 MOL      -0.5690
      9 OE2         5.7984   22.6727    3.6047 O.co2       1 MOL      -0.5690
     10 N           6.8919   26.2830    6.5392 N.am        1 MOL      -0.2595
     11 CA          6.3356   27.0087    7.6490 C.3         1 MOL       0.1424
     12 C           5.8607   28.3478    7.2815 C.2         1 MOL       0.2051
     13 O           6.6687   29.2127    6.9651 O.2         1 MOL      -0.3943
     14 CB          7.1927   26.9484    8.9590 C.3         1 MOL       0.0406
     15 CG          8.5850   27.4095    8.8562 C.2         1 MOL       0.0393
     16 OD1         9.5635   26.7977    9.5703 O.co2       1 MOL      -0.5688
     17 OD2         8.8992   28.5510    8.1995 O.co2       1 MOL      -0.5688
     18 N           4.5522   28.5925    7.2862 N.am        1 MOL      -0.2694
     19 CA          3.8663   29.8144    6.9838 C.3         1 MOL       0.0946
     20 C           3.1104   30.2317    8.1877 C.2         1 MOL       0.0601
     21 O           2.5896   29.3115    9.0347 O.co2       1 MOL      -0.5666
     22 CB          2.9407   29.6915    5.7243 C.3         1 MOL      -0.0156
     23 CG          2.4483   28.2526    5.3225 C.3         1 MOL      -0.0431
     24 CD1         1.1726   28.3079    4.4396 C.3         1 MOL      -0.0625
     25 CD2         3.5529   27.4405    4.5809 C.3         1 MOL      -0.0625
     26 OXT         2.6063   31.4849    8.2467 O.co2       1 MOL      -0.5666
     27 H1          9.0671   23.8045    4.5326 H           1 MOL       0.2015
     28 H2          7.9088   23.9651    5.7290 H           1 MOL       0.2015
     29 H3          9.4273   24.6461    5.9291 H           1 MOL       0.2015
     30 H4          9.0642   26.0778    4.0533 H           1 MOL       0.1099
     31 H5          6.8884   26.3643    3.0533 H           1 MOL       0.0363
     32 H6          6.1198   25.2096    4.1379 H           1 MOL       0.0363
     33 H7          8.3348   24.3622    2.2020 H           1 MOL       0.0434
     34 H8          6.6508   24.4870    1.6863 H           1 MOL       0.0434
     35 H9          6.4804   25.4135    6.3806 H           1 MOL       0.1886
     36 H10         5.4505   26.4161    7.8985 H           1 MOL       0.0819
     37 H11         7.2028   25.9060    9.3011 H           1 MOL       0.0478
     38 H12         6.6915   27.5311    9.7416 H           1 MOL       0.0478
     39 H13         3.9781   27.8477    7.5314 H           1 MOL       0.1875
     40 H14         4.5860   30.6151    6.7779 H           1 MOL       0.0726
     41 H15         3.4641   30.1252    4.8662 H           1 MOL       0.0308
     42 H16         2.0712   30.3420    5.8832 H           1 MOL       0.0308
     43 H17         2.1793   27.7054    6.2274 H           1 MOL       0.0297
     44 H18         0.8482   27.2955    4.1697 H           1 MOL       0.0232
     45 H19         1.3633   28.8716    3.5192 H           1 MOL       0.0232
     46 H20         0.3540   28.7889    4.9839 H           1 MOL       0.0232
     47 H21         4.4484   27.3510    5.1994 H           1 MOL       0.0232
     48 H22         3.8285   27.9328    3.6395 H           1 MOL       0.0232
     49 H23         3.1975   26.4272    4.3535 H           1 MOL       0.0232
@<TRIPOS>BOND
     1     3     2   1
     2     2     5   1
     3     2     1   1
     4     5     6   1
     5     6     7   1
     6     7     8  ar
     7     7     9  ar
     8     3     4   2
     9    12    11   1
    10    11    14   1
    11    11    10   1
    12    14    15   1
    13    15    16  ar
    14    15    17  ar
    15    12    13   2
    16    19    20   1
    17    19    22   1
    18    18    19   1
    19    22    23   1
    20    23    25   1
    21    23    24   1
    22    20    26  ar
    23    20    21  ar
    24    10     3  am
    25    12    18  am
    26     1    27   1
    27     1    28   1
    28     1    29   1
    29     2    30   1
    30     5    31   1
    31     5    32   1
    32     6    33   1
    33     6    34   1
    34    10    35   1
    35    11    36   1
    36    14    37   1
    37    14    38   1
    38    18    39   1
    39    19    40   1
    40    22    41   1
    41    22    42   1
    42    23    43   1
    43    24    44   1
    44    24    45   1
    45    24    46   1
    46    25    47   1
    47    25    48   1
    48    25    49   1
@<TRIPOS>SUBSTRUCTURE
     1  MOL      2

