@<TRIPOS>MOLECULE
1a30_ligand_025
    49    48
SMALL
GAST_HUCK
****
This file was generated by PARSER (from files_GN.cpp)

@<TRIPOS>ATOM
      1 N          12.3359   25.6376    5.9627 N.4         1 MOL       0.2380
      2 CA         12.3368   24.1898    5.6934 C.3         1 MOL       0.0665
      3 C          12.7118   23.4359    6.8850 C.2         1 MOL       0.2269
      4 O          12.0446   22.4461    7.1653 O.2         1 MOL      -0.3907
      5 CB         13.2464   23.8742    4.4668 C.3         1 MOL       0.0194
      6 CG         13.3680   22.3710    4.0867 C.3         1 MOL       0.0075
      7 CD         12.0663   21.7118    3.8522 C.2         1 MOL       0.0351
      8 OE1        11.5207   21.6816    2.6136 O.co2       1 MOL      -0.5690
      9 OE2        11.3945   21.1237    4.8716 O.co2       1 MOL      -0.5690
     10 N          13.8012   23.7543    7.5815 N.am        1 MOL      -0.2595
     11 CA         14.4292   23.0198    8.6552 C.3         1 MOL       0.1424
     12 C          15.1060   21.8339    8.1190 C.2         1 MOL       0.2051
     13 O          14.4983   20.7714    8.0900 O.2         1 MOL      -0.3943
     14 CB         13.4866   22.7356    9.8751 C.3         1 MOL       0.0406
     15 CG         13.9703   21.6905   10.8035 C.2         1 MOL       0.0393
     16 OD1        13.7092   20.3894   10.5501 O.co2       1 MOL      -0.5688
     17 OD2        14.4292   21.9975   12.0344 O.co2       1 MOL      -0.5688
     18 N          16.3765   21.9066    7.7264 N.am        1 MOL      -0.2694
     19 CA         17.2433   20.8559    7.2643 C.3         1 MOL       0.0946
     20 C          17.0669   20.6216    5.8084 C.2         1 MOL       0.0601
     21 O          18.1340   20.4414    4.9983 O.co2       1 MOL      -0.5666
     22 CB         17.1245   19.5565    8.1256 C.3         1 MOL      -0.0156
     23 CG         18.4119   18.6775    8.2807 C.3         1 MOL      -0.0431
     24 CD1        18.0417   17.2659    8.8172 C.3         1 MOL      -0.0625
     25 CD2        19.2561   18.5445    6.9831 C.3         1 MOL      -0.0625
     26 OXT        15.8387   20.5308    5.2506 O.co2       1 MOL      -0.5666
     27 H1         11.9925   26.1401    5.1407 H           1 MOL       0.2015
     28 H2         13.2852   25.9489    6.1734 H           1 MOL       0.2015
     29 H3         11.7286   25.8425    6.7590 H           1 MOL       0.2015
     30 H4         11.3072   23.9437    5.4128 H           1 MOL       0.1099
     31 H5         14.2558   24.2569    4.6608 H           1 MOL       0.0363
     32 H6         12.8588   24.4178    3.5974 H           1 MOL       0.0363
     33 H7         13.9000   21.8464    4.8882 H           1 MOL       0.0434
     34 H8         13.9716   22.2736    3.1795 H           1 MOL       0.0434
     35 H9         14.2508   24.5744    7.3115 H           1 MOL       0.1886
     36 H10        15.1967   23.7026    9.0384 H           1 MOL       0.0819
     37 H11        12.4986   22.4191    9.5413 H           1 MOL       0.0478
     38 H12        13.3594   23.6692   10.4273 H           1 MOL       0.0478
     39 H13        16.7911   22.7823    7.8027 H           1 MOL       0.1875
     40 H14        18.2538   21.2457    7.4118 H           1 MOL       0.0726
     41 H15        16.3139   18.9365    7.7372 H           1 MOL       0.0308
     42 H16        16.8320   19.8594    9.1353 H           1 MOL       0.0308
     43 H17        19.0510   19.1482    9.0381 H           1 MOL       0.0297
     44 H18        18.9473   16.6874    9.0239 H           1 MOL       0.0232
     45 H19        17.4388   16.7196    8.0859 H           1 MOL       0.0232
     46 H20        17.4764   17.3419    9.7488 H           1 MOL       0.0232
     47 H21        19.7013   19.5037    6.7201 H           1 MOL       0.0232
     48 H22        18.6350   18.1915    6.1518 H           1 MOL       0.0232
     49 H23        20.0773   17.8375    7.1273 H           1 MOL       0.0232
@<TRIPOS>BOND
     1     3     2   1
     2     2     5   1
     3     2     1   1
     4     5     6   1
     5     6     7   1
     6     7     8  ar
     7     7     9  ar
     8     3     4   2
     9    12    11   1
    10    11    14   1
    11    11    10   1
    12    14    15   1
    13    15    16  ar
    14    15    17  ar
    15    12    13   2
    16    19    20   1
    17    19    22   1
    18    18    19   1
    19    22    23   1
    20    23    25   1
    21    23    24   1
    22    20    26  ar
    23    20    21  ar
    24    10     3  am
    25    12    18  am
    26     1    27   1
    27     1    28   1
    28     1    29   1
    29     2    30   1
    30     5    31   1
    31     5    32   1
    32     6    33   1
    33     6    34   1
    34    10    35   1
    35    11    36   1
    36    14    37   1
    37    14    38   1
    38    18    39   1
    39    19    40   1
    40    22    41   1
    41    22    42   1
    42    23    43   1
    43    24    44   1
    44    24    45   1
    45    24    46   1
    46    25    47   1
    47    25    48   1
    48    25    49   1
@<TRIPOS>SUBSTRUCTURE
     1  MOL      2

