@<TRIPOS>MOLECULE
1a30_ligand_047
    49    48
SMALL
GAST_HUCK
****
This file was generated by PARSER (from files_GN.cpp)

@<TRIPOS>ATOM
      1 N          17.3193   18.4029    5.5949 N.4         1 MOL       0.2380
      2 CA         16.5992   19.4230    4.8130 C.3         1 MOL       0.0665
      3 C          16.0630   20.4931    5.6475 C.2         1 MOL       0.2269
      4 O          16.0331   20.3716    6.8739 O.2         1 MOL      -0.3907
      5 CB         15.4777   18.7482    3.9554 C.3         1 MOL       0.0194
      6 CG         15.9001   17.5543    3.0554 C.3         1 MOL       0.0075
      7 CD         17.0636   17.8457    2.1949 C.2         1 MOL       0.0351
      8 OE1        17.0274   17.6065    0.8658 O.co2       1 MOL      -0.5690
      9 OE2        18.2544   18.1793    2.7512 O.co2       1 MOL      -0.5690
     10 N          15.5840   21.5846    5.0710 N.am        1 MOL      -0.2595
     11 CA         14.9680   22.7260    5.7037 C.3         1 MOL       0.1424
     12 C          13.7157   22.4212    6.4015 C.2         1 MOL       0.2051
     13 O          13.4206   21.2429    6.6464 O.2         1 MOL      -0.3943
     14 CB         14.7894   23.8469    4.6309 C.3         1 MOL       0.0406
     15 CG         13.4693   23.8647    3.9742 C.2         1 MOL       0.0393
     16 OD1        12.7436   25.0177    3.9272 O.co2       1 MOL      -0.5688
     17 OD2        12.9458   22.7533    3.3762 O.co2       1 MOL      -0.5688
     18 N          12.9303   23.4036    6.8384 N.am        1 MOL      -0.2694
     19 CA         11.7010   23.2683    7.5648 C.3         1 MOL       0.0946
     20 C          10.6326   22.6183    6.7517 C.2         1 MOL       0.0601
     21 O          10.6685   21.2861    6.5245 O.co2       1 MOL      -0.5666
     22 CB         11.3029   24.6043    8.2828 C.3         1 MOL      -0.0156
     23 CG         10.6464   25.8345    7.5454 C.3         1 MOL      -0.0431
     24 CD1        11.1396   26.0799    6.0827 C.3         1 MOL      -0.0625
     25 CD2         9.0951   25.8732    7.6542 C.3         1 MOL      -0.0625
     26 OXT         9.6418   23.2958    6.1122 O.co2       1 MOL      -0.5666
     27 H1         17.7737   17.7412    4.9663 H           1 MOL       0.2015
     28 H2         16.6569   17.9029    6.1934 H           1 MOL       0.2015
     29 H3         18.0323   18.8490    6.1804 H           1 MOL       0.2015
     30 H4         17.3326   19.8895    4.1455 H           1 MOL       0.1099
     31 H5         15.0214   19.5024    3.3078 H           1 MOL       0.0363
     32 H6         14.6986   18.3825    4.6330 H           1 MOL       0.0363
     33 H7         15.0496   17.2974    2.4139 H           1 MOL       0.0434
     34 H8         16.1228   16.6759    3.6669 H           1 MOL       0.0434
     35 H9         15.6567   21.6286    4.0993 H           1 MOL       0.1886
     36 H10        15.6692   23.1194    6.4505 H           1 MOL       0.0819
     37 H11        15.5420   23.7265    3.8385 H           1 MOL       0.0478
     38 H12        14.9722   24.8266    5.0992 H           1 MOL       0.0478
     39 H13        13.2544   24.3105    6.6810 H           1 MOL       0.1875
     40 H14        11.9278   22.5712    8.3912 H           1 MOL       0.0726
     41 H15        12.2277   24.9695    8.7443 H           1 MOL       0.0308
     42 H16        10.6499   24.3247    9.1245 H           1 MOL       0.0308
     43 H17        10.9771   26.7290    8.1004 H           1 MOL       0.0297
     44 H18        10.6018   26.9291    5.6460 H           1 MOL       0.0232
     45 H19        10.9431   25.2026    5.4573 H           1 MOL       0.0232
     46 H20        12.2153   26.2987    6.0755 H           1 MOL       0.0232
     47 H21         8.7915   25.7883    8.7093 H           1 MOL       0.0232
     48 H22         8.6322   25.0539    7.0894 H           1 MOL       0.0232
     49 H23         8.7083   26.8192    7.2534 H           1 MOL       0.0232
@<TRIPOS>BOND
     1     3     2   1
     2     2     5   1
     3     2     1   1
     4     5     6   1
     5     6     7   1
     6     7     8  ar
     7     7     9  ar
     8     3     4   2
     9    12    11   1
    10    11    14   1
    11    11    10   1
    12    14    15   1
    13    15    16  ar
    14    15    17  ar
    15    12    13   2
    16    19    20   1
    17    19    22   1
    18    18    19   1
    19    22    23   1
    20    23    25   1
    21    23    24   1
    22    20    26  ar
    23    20    21  ar
    24    10     3  am
    25    12    18  am
    26     1    27   1
    27     1    28   1
    28     1    29   1
    29     2    30   1
    30     5    31   1
    31     5    32   1
    32     6    33   1
    33     6    34   1
    34    10    35   1
    35    11    36   1
    36    14    37   1
    37    14    38   1
    38    18    39   1
    39    19    40   1
    40    22    41   1
    41    22    42   1
    42    23    43   1
    43    24    44   1
    44    24    45   1
    45    24    46   1
    46    25    47   1
    47    25    48   1
    48    25    49   1
@<TRIPOS>SUBSTRUCTURE
     1  MOL      2

