@<TRIPOS>MOLECULE
1a30_ligand_019
    49    48
SMALL
GAST_HUCK
****
This file was generated by PARSER (from files_GN.cpp)

@<TRIPOS>ATOM
      1 N          13.7340   25.1139    4.5221 N.4         1 MOL       0.2380
      2 CA         12.9793   23.8499    4.5228 C.3         1 MOL       0.0665
      3 C          12.0971   23.8142    5.6741 C.2         1 MOL       0.2269
      4 O          10.8934   23.6907    5.4799 O.2         1 MOL      -0.3907
      5 CB         13.9419   22.6240    4.3753 C.3         1 MOL       0.0194
      6 CG         13.5453   21.2686    5.0437 C.3         1 MOL       0.0075
      7 CD         12.1049   20.9701    5.1214 C.2         1 MOL       0.0351
      8 OE1        11.5389   20.6379    6.3051 O.co2       1 MOL      -0.5690
      9 OE2        11.2967   21.1580    4.0457 O.co2       1 MOL      -0.5690
     10 N          12.5796   23.8544    6.9106 N.am        1 MOL      -0.2595
     11 CA         11.7893   23.8193    8.1087 C.3         1 MOL       0.1424
     12 C          10.8990   24.9722    8.1650 C.2         1 MOL       0.2051
     13 O          11.3753   26.0998    8.0726 O.2         1 MOL      -0.3943
     14 CB         12.7238   23.7237    9.3617 C.3         1 MOL       0.0406
     15 CG         13.1721   22.3448    9.6518 C.2         1 MOL       0.0393
     16 OD1        12.9055   21.7621   10.8511 O.co2       1 MOL      -0.5688
     17 OD2        13.8845   21.6349    8.7402 O.co2       1 MOL      -0.5688
     18 N           9.5793   24.8070    8.2350 N.am        1 MOL      -0.2694
     19 CA          8.5826   25.8508    8.3091 C.3         1 MOL       0.0946
     20 C           7.2573   25.3040    8.6837 C.2         1 MOL       0.0601
     21 O           6.1412   26.0376    8.4433 O.co2       1 MOL      -0.5666
     22 CB          8.5337   26.7550    7.0252 C.3         1 MOL      -0.0156
     23 CG          7.7246   26.2714    5.7708 C.3         1 MOL      -0.0431
     24 CD1         7.5945   27.4088    4.7188 C.3         1 MOL      -0.0625
     25 CD2         8.3249   25.0112    5.0900 C.3         1 MOL      -0.0625
     26 OXT         7.1123   24.1332    9.3549 O.co2       1 MOL      -0.5666
     27 H1         14.3519   25.1358    3.7107 H           1 MOL       0.2015
     28 H2         14.2861   25.2133    5.3739 H           1 MOL       0.2015
     29 H3         13.0841   25.9025    4.4571 H           1 MOL       0.2015
     30 H4         12.3658   23.8792    3.6080 H           1 MOL       0.1099
     31 H5         14.9281   22.8995    4.7665 H           1 MOL       0.0363
     32 H6         14.0790   22.4387    3.3016 H           1 MOL       0.0363
     33 H7         13.9622   21.2504    6.0585 H           1 MOL       0.0434
     34 H8         14.0264   20.4543    4.4861 H           1 MOL       0.0434
     35 H9         13.5381   23.9158    7.0097 H           1 MOL       0.1886
     36 H10        11.1831   22.8964    8.0894 H           1 MOL       0.0819
     37 H11        12.1953   24.1014   10.2454 H           1 MOL       0.0478
     38 H12        13.6099   24.3496    9.2208 H           1 MOL       0.0478
     39 H13         9.2554   23.8951    8.3072 H           1 MOL       0.1875
     40 H14         8.8620   26.5005    9.1462 H           1 MOL       0.0726
     41 H15         9.5581   26.9728    6.7155 H           1 MOL       0.0308
     42 H16         8.0882   27.7056    7.3339 H           1 MOL       0.0308
     43 H17         6.7104   26.0135    6.0955 H           1 MOL       0.0297
     44 H18         7.0221   27.0711    3.8506 H           1 MOL       0.0232
     45 H19         8.5771   27.7329    4.3772 H           1 MOL       0.0232
     46 H20         7.0758   28.2636    5.1484 H           1 MOL       0.0232
     47 H21         8.4732   24.2081    5.8139 H           1 MOL       0.0232
     48 H22         9.2814   25.2522    4.6201 H           1 MOL       0.0232
     49 H23         7.6483   24.6382    4.3132 H           1 MOL       0.0232
@<TRIPOS>BOND
     1     3     2   1
     2     2     5   1
     3     2     1   1
     4     5     6   1
     5     6     7   1
     6     7     8  ar
     7     7     9  ar
     8     3     4   2
     9    12    11   1
    10    11    14   1
    11    11    10   1
    12    14    15   1
    13    15    16  ar
    14    15    17  ar
    15    12    13   2
    16    19    20   1
    17    19    22   1
    18    18    19   1
    19    22    23   1
    20    23    25   1
    21    23    24   1
    22    20    26  ar
    23    20    21  ar
    24    10     3  am
    25    12    18  am
    26     1    27   1
    27     1    28   1
    28     1    29   1
    29     2    30   1
    30     5    31   1
    31     5    32   1
    32     6    33   1
    33     6    34   1
    34    10    35   1
    35    11    36   1
    36    14    37   1
    37    14    38   1
    38    18    39   1
    39    19    40   1
    40    22    41   1
    41    22    42   1
    42    23    43   1
    43    24    44   1
    44    24    45   1
    45    24    46   1
    46    25    47   1
    47    25    48   1
    48    25    49   1
@<TRIPOS>SUBSTRUCTURE
     1  MOL      2

