@<TRIPOS>MOLECULE
1a30_ligand_093
    49    48
SMALL
GAST_HUCK
****
This file was generated by PARSER (from files_GN.cpp)

@<TRIPOS>ATOM
      1 N          13.0916   21.7954    4.7418 N.4         1 MOL       0.2380
      2 CA         13.8935   20.5570    4.8129 C.3         1 MOL       0.0665
      3 C          14.3435   20.3153    6.1899 C.2         1 MOL       0.2269
      4 O          13.5880   20.6301    7.1000 O.2         1 MOL      -0.3907
      5 CB         15.0131   20.6758    3.7323 C.3         1 MOL       0.0194
      6 CG         15.5557   19.3083    3.2108 C.3         1 MOL       0.0075
      7 CD         17.0277   19.2597    3.0926 C.2         1 MOL       0.0351
      8 OE1        17.8054   19.6677    4.1226 O.co2       1 MOL      -0.5690
      9 OE2        17.5948   18.4659    2.1577 O.co2       1 MOL      -0.5690
     10 N          15.4891   19.6934    6.4681 N.am        1 MOL      -0.2595
     11 CA         16.0273   19.3417    7.7557 C.3         1 MOL       0.1424
     12 C          16.3880   20.5349    8.5154 C.2         1 MOL       0.2051
     13 O          16.0971   20.5921    9.7023 O.2         1 MOL      -0.3943
     14 CB         17.2596   18.3997    7.5626 C.3         1 MOL       0.0406
     15 CG         17.3728   17.2843    8.5300 C.2         1 MOL       0.0393
     16 OD1        18.3238   16.3406    8.3431 O.co2       1 MOL      -0.5688
     17 OD2        16.4494   17.0494    9.4919 O.co2       1 MOL      -0.5688
     18 N          17.0955   21.4920    7.9228 N.am        1 MOL      -0.2694
     19 CA         17.6208   22.6997    8.4863 C.3         1 MOL       0.0946
     20 C          18.7705   22.3975    9.3786 C.2         1 MOL       0.0601
     21 O          19.3191   23.3884   10.1167 O.co2       1 MOL      -0.5666
     22 CB         16.5517   23.6406    9.1413 C.3         1 MOL      -0.0156
     23 CG         15.2450   24.0465    8.3568 C.3         1 MOL      -0.0431
     24 CD1        15.2564   23.8037    6.8218 C.3         1 MOL      -0.0625
     25 CD2        13.9534   23.4569    8.9976 C.3         1 MOL      -0.0625
     26 OXT        19.6063   21.3786    9.0714 O.co2       1 MOL      -0.5666
     27 H1         12.6920   21.8813    3.8035 H           1 MOL       0.2015
     28 H2         13.6933   22.6027    4.9232 H           1 MOL       0.2015
     29 H3         12.3329   21.7728    5.4284 H           1 MOL       0.2015
     30 H4         13.2240   19.7371    4.5324 H           1 MOL       0.1099
     31 H5         15.8175   21.2924    4.1472 H           1 MOL       0.0363
     32 H6         14.6173   21.2228    2.8712 H           1 MOL       0.0363
     33 H7         15.1085   19.1099    2.2339 H           1 MOL       0.0434
     34 H8         15.2586   18.4897    3.8689 H           1 MOL       0.0434
     35 H9         16.0136   19.4066    5.7087 H           1 MOL       0.1886
     36 H10        15.2509   18.7795    8.2860 H           1 MOL       0.0819
     37 H11        18.1849   18.9761    7.6002 H           1 MOL       0.0478
     38 H12        17.2093   17.9416    6.5743 H           1 MOL       0.0478
     39 H13        17.2946   21.3585    6.9792 H           1 MOL       0.1875
     40 H14        18.0521   23.2456    7.6456 H           1 MOL       0.0726
     41 H15        17.0720   24.5688    9.3960 H           1 MOL       0.0308
     42 H16        16.2661   23.2078   10.1014 H           1 MOL       0.0308
     43 H17        15.1413   25.1324    8.4702 H           1 MOL       0.0297
     44 H18        14.3630   24.2313    6.3603 H           1 MOL       0.0232
     45 H19        15.2728   22.7406    6.5952 H           1 MOL       0.0232
     46 H20        16.1299   24.2783    6.3712 H           1 MOL       0.0232
     47 H21        13.8711   23.7775   10.0407 H           1 MOL       0.0232
     48 H22        13.9715   22.3660    8.9653 H           1 MOL       0.0232
     49 H23        13.0660   23.8128    8.4680 H           1 MOL       0.0232
@<TRIPOS>BOND
     1     3     2   1
     2     2     5   1
     3     2     1   1
     4     5     6   1
     5     6     7   1
     6     7     8  ar
     7     7     9  ar
     8     3     4   2
     9    12    11   1
    10    11    14   1
    11    11    10   1
    12    14    15   1
    13    15    16  ar
    14    15    17  ar
    15    12    13   2
    16    19    20   1
    17    19    22   1
    18    18    19   1
    19    22    23   1
    20    23    25   1
    21    23    24   1
    22    20    26  ar
    23    20    21  ar
    24    10     3  am
    25    12    18  am
    26     1    27   1
    27     1    28   1
    28     1    29   1
    29     2    30   1
    30     5    31   1
    31     5    32   1
    32     6    33   1
    33     6    34   1
    34    10    35   1
    35    11    36   1
    36    14    37   1
    37    14    38   1
    38    18    39   1
    39    19    40   1
    40    22    41   1
    41    22    42   1
    42    23    43   1
    43    24    44   1
    44    24    45   1
    45    24    46   1
    46    25    47   1
    47    25    48   1
    48    25    49   1
@<TRIPOS>SUBSTRUCTURE
     1  MOL      2

