@<TRIPOS>MOLECULE
1a30_ligand_049
    49    48
SMALL
GAST_HUCK
****
This file was generated by PARSER (from files_GN.cpp)

@<TRIPOS>ATOM
      1 N          -0.2646   26.1968    7.9190 N.4         1 MOL       0.2380
      2 CA          0.4324   26.5155    6.6531 C.3         1 MOL       0.0665
      3 C           1.7951   26.0014    6.6136 C.2         1 MOL       0.2269
      4 O           2.3647   25.6776    7.6483 O.2         1 MOL      -0.3907
      5 CB          0.3722   28.0459    6.3607 C.3         1 MOL       0.0194
      6 CG          1.0296   28.9479    7.4458 C.3         1 MOL       0.0075
      7 CD          1.0863   30.3839    7.1113 C.2         1 MOL       0.0351
      8 OE1         0.7547   30.8687    5.8885 O.co2       1 MOL      -0.5690
      9 OE2         1.4738   31.2628    8.0602 O.co2       1 MOL      -0.5690
     10 N           2.4489   25.9746    5.4551 N.am        1 MOL      -0.2595
     11 CA          3.8463   25.6808    5.2669 C.3         1 MOL       0.1424
     12 C           4.6821   26.6501    5.9765 C.2         1 MOL       0.2051
     13 O           4.4356   27.8445    5.8371 O.2         1 MOL      -0.3943
     14 CB          4.2032   25.5932    3.7525 C.3         1 MOL       0.0406
     15 CG          4.1157   26.8635    2.9983 C.2         1 MOL       0.0393
     16 OD1         5.2026   27.3548    2.3540 O.co2       1 MOL      -0.5688
     17 OD2         2.9361   27.5113    2.8594 O.co2       1 MOL      -0.5688
     18 N           5.6213   26.2498    6.8293 N.am        1 MOL      -0.2694
     19 CA          6.4095   27.1004    7.6754 C.3         1 MOL       0.0946
     20 C           7.3705   27.9473    6.9279 C.2         1 MOL       0.0601
     21 O           7.5489   27.8537    5.5878 O.co2       1 MOL      -0.5666
     22 CB          7.1069   26.2948    8.8174 C.3         1 MOL      -0.0156
     23 CG          8.5729   25.7912    8.5986 C.3         1 MOL      -0.0431
     24 CD1         9.2233   25.4194    9.9601 C.3         1 MOL      -0.0625
     25 CD2         8.6619   24.5931    7.6144 C.3         1 MOL      -0.0625
     26 OXT         8.1125   28.8570    7.5913 O.co2       1 MOL      -0.5666
     27 H1         -1.1922   26.6309    7.9194 H           1 MOL       0.2015
     28 H2          0.2704   26.5413    8.7233 H           1 MOL       0.2015
     29 H3         -0.3691   25.1799    7.9982 H           1 MOL       0.2015
     30 H4         -0.1332   26.0051    5.8695 H           1 MOL       0.1099
     31 H5         -0.6796   28.3352    6.2633 H           1 MOL       0.0363
     32 H6          0.8522   28.2434    5.3942 H           1 MOL       0.0363
     33 H7          2.0543   28.6123    7.6333 H           1 MOL       0.0434
     34 H8          0.4635   28.8487    8.3748 H           1 MOL       0.0434
     35 H9          1.9430   26.2197    4.6615 H           1 MOL       0.1886
     36 H10         4.0174   24.6811    5.6740 H           1 MOL       0.0819
     37 H11         3.5346   24.8740    3.2752 H           1 MOL       0.0478
     38 H12         5.2193   25.1965    3.6639 H           1 MOL       0.0478
     39 H13         5.7437   25.2950    6.9314 H           1 MOL       0.1875
     40 H14         5.7047   27.7817    8.1649 H           1 MOL       0.0726
     41 H15         6.4796   25.4340    9.0625 H           1 MOL       0.0308
     42 H16         7.1050   26.9394    9.7009 H           1 MOL       0.0308
     43 H17         9.1730   26.6045    8.1800 H           1 MOL       0.0297
     44 H18        10.2461   25.0614    9.8171 H           1 MOL       0.0232
     45 H19         8.6415   24.6407   10.4593 H           1 MOL       0.0232
     46 H20         9.2593   26.2964   10.6103 H           1 MOL       0.0232
     47 H21         8.3121   24.8862    6.6226 H           1 MOL       0.0232
     48 H22         8.0540   23.7591    7.9754 H           1 MOL       0.0232
     49 H23         9.6951   24.2501    7.5169 H           1 MOL       0.0232
@<TRIPOS>BOND
     1     3     2   1
     2     2     5   1
     3     2     1   1
     4     5     6   1
     5     6     7   1
     6     7     8  ar
     7     7     9  ar
     8     3     4   2
     9    12    11   1
    10    11    14   1
    11    11    10   1
    12    14    15   1
    13    15    16  ar
    14    15    17  ar
    15    12    13   2
    16    19    20   1
    17    19    22   1
    18    18    19   1
    19    22    23   1
    20    23    25   1
    21    23    24   1
    22    20    26  ar
    23    20    21  ar
    24    10     3  am
    25    12    18  am
    26     1    27   1
    27     1    28   1
    28     1    29   1
    29     2    30   1
    30     5    31   1
    31     5    32   1
    32     6    33   1
    33     6    34   1
    34    10    35   1
    35    11    36   1
    36    14    37   1
    37    14    38   1
    38    18    39   1
    39    19    40   1
    40    22    41   1
    41    22    42   1
    42    23    43   1
    43    24    44   1
    44    24    45   1
    45    24    46   1
    46    25    47   1
    47    25    48   1
    48    25    49   1
@<TRIPOS>SUBSTRUCTURE
     1  MOL      2

