@<TRIPOS>MOLECULE
1a30_ligand_054
    49    48
SMALL
GAST_HUCK
****
This file was generated by PARSER (from files_GN.cpp)

@<TRIPOS>ATOM
      1 N           7.6862   27.8298   10.2815 N.4         1 MOL       0.2380
      2 CA          8.7633   27.4856    9.3443 C.3         1 MOL       0.0665
      3 C           8.2204   27.5255    7.9872 C.2         1 MOL       0.2269
      4 O           8.6019   28.4048    7.2201 O.2         1 MOL      -0.3907
      5 CB          9.4606   26.1569    9.8156 C.3         1 MOL       0.0194
      6 CG          9.9698   25.1596    8.7383 C.3         1 MOL       0.0075
      7 CD          8.9603   24.2362    8.1893 C.2         1 MOL       0.0351
      8 OE1         7.6992   24.1463    8.6713 O.co2       1 MOL      -0.5690
      9 OE2         9.3508   23.3279    7.2564 O.co2       1 MOL      -0.5690
     10 N           7.3266   26.6267    7.5964 N.am        1 MOL      -0.2595
     11 CA          6.6948   26.5042    6.3092 C.3         1 MOL       0.1424
     12 C           7.6570   26.2163    5.2427 C.2         1 MOL       0.2051
     13 O           7.9783   27.1158    4.4761 O.2         1 MOL      -0.3943
     14 CB          5.7247   27.7064    6.0493 C.3         1 MOL       0.0406
     15 CG          4.4938   27.7014    6.8799 C.2         1 MOL       0.0393
     16 OD1         4.0340   26.5676    7.4686 O.co2       1 MOL      -0.5688
     17 OD2         3.6628   28.7683    6.8527 O.co2       1 MOL      -0.5688
     18 N           8.1221   24.9741    5.0642 N.am        1 MOL      -0.2694
     19 CA          8.9466   24.5237    3.9743 C.3         1 MOL       0.0946
     20 C           8.9106   23.0416    3.9199 C.2         1 MOL       0.0601
     21 O           7.9747   22.4110    3.1680 O.co2       1 MOL      -0.5666
     22 CB         10.3999   25.1234    3.9768 C.3         1 MOL      -0.0156
     23 CG         11.5089   24.4997    4.9020 C.3         1 MOL      -0.0431
     24 CD1        12.3719   23.4421    4.1464 C.3         1 MOL      -0.0625
     25 CD2        12.4499   25.5791    5.5116 C.3         1 MOL      -0.0625
     26 OXT         9.6848   22.2805    4.7317 O.co2       1 MOL      -0.5666
     27 H1          8.0483   27.8532   11.2403 H           1 MOL       0.2015
     28 H2          6.9456   27.1296   10.2208 H           1 MOL       0.2015
     29 H3          7.3048   28.7446   10.0541 H           1 MOL       0.2015
     30 H4          9.5064   28.2920    9.4454 H           1 MOL       0.1099
     31 H5          8.8009   25.6121   10.5017 H           1 MOL       0.0363
     32 H6         10.3247   26.4403   10.4278 H           1 MOL       0.0363
     33 H7         10.7614   24.5380    9.1759 H           1 MOL       0.0434
     34 H8         10.4256   25.7216    7.9166 H           1 MOL       0.0434
     35 H9          7.0626   25.9660    8.2552 H           1 MOL       0.1886
     36 H10         6.0510   25.6245    6.3671 H           1 MOL       0.0819
     37 H11         5.4068   27.7105    5.0018 H           1 MOL       0.0478
     38 H12         6.2477   28.6535    6.2326 H           1 MOL       0.0478
     39 H13         7.7602   24.2967    5.6605 H           1 MOL       0.1875
     40 H14         8.4640   24.8808    3.0548 H           1 MOL       0.0726
     41 H15        10.2885   26.1801    4.2399 H           1 MOL       0.0308
     42 H16        10.7584   25.1171    2.9420 H           1 MOL       0.0308
     43 H17        11.0256   24.0042    5.7465 H           1 MOL       0.0297
     44 H18        13.0221   22.9146    4.8480 H           1 MOL       0.0232
     45 H19        12.9918   23.9316    3.3916 H           1 MOL       0.0232
     46 H20        11.7377   22.7094    3.6484 H           1 MOL       0.0232
     47 H21        11.8734   26.3151    6.0838 H           1 MOL       0.0232
     48 H22        12.9962   26.1082    4.7260 H           1 MOL       0.0232
     49 H23        13.1704   25.1179    6.1946 H           1 MOL       0.0232
@<TRIPOS>BOND
     1     3     2   1
     2     2     5   1
     3     2     1   1
     4     5     6   1
     5     6     7   1
     6     7     8  ar
     7     7     9  ar
     8     3     4   2
     9    12    11   1
    10    11    14   1
    11    11    10   1
    12    14    15   1
    13    15    16  ar
    14    15    17  ar
    15    12    13   2
    16    19    20   1
    17    19    22   1
    18    18    19   1
    19    22    23   1
    20    23    25   1
    21    23    24   1
    22    20    26  ar
    23    20    21  ar
    24    10     3  am
    25    12    18  am
    26     1    27   1
    27     1    28   1
    28     1    29   1
    29     2    30   1
    30     5    31   1
    31     5    32   1
    32     6    33   1
    33     6    34   1
    34    10    35   1
    35    11    36   1
    36    14    37   1
    37    14    38   1
    38    18    39   1
    39    19    40   1
    40    22    41   1
    41    22    42   1
    42    23    43   1
    43    24    44   1
    44    24    45   1
    45    24    46   1
    46    25    47   1
    47    25    48   1
    48    25    49   1
@<TRIPOS>SUBSTRUCTURE
     1  MOL      2

