@<TRIPOS>MOLECULE
1a30_ligand_043
    49    48
SMALL
GAST_HUCK
****
This file was generated by PARSER (from files_GN.cpp)

@<TRIPOS>ATOM
      1 N          13.9558   24.7950    4.5942 N.4         1 MOL       0.2380
      2 CA         12.5654   25.0584    4.1807 C.3         1 MOL       0.0665
      3 C          11.7426   25.3605    5.3507 C.2         1 MOL       0.2269
      4 O          12.0270   26.3688    5.9953 O.2         1 MOL      -0.3907
      5 CB         12.0415   23.9249    3.2290 C.3         1 MOL       0.0194
      6 CG         12.6443   22.5154    3.5244 C.3         1 MOL       0.0075
      7 CD         11.7238   21.4358    3.1376 C.2         1 MOL       0.0351
      8 OE1        11.6370   21.0424    1.8446 O.co2       1 MOL      -0.5690
      9 OE2        10.7893   21.0294    4.0282 O.co2       1 MOL      -0.5690
     10 N          10.7020   24.6055    5.6993 N.am        1 MOL      -0.2595
     11 CA          9.7364   24.8107    6.7459 C.3         1 MOL       0.1424
     12 C           8.9753   26.0371    6.4949 C.2         1 MOL       0.2051
     13 O           9.5771   27.0943    6.3294 O.2         1 MOL      -0.3943
     14 CB         10.3288   24.7242    8.1873 C.3         1 MOL       0.0406
     15 CG         11.4458   23.7726    8.3277 C.2         1 MOL       0.0393
     16 OD1        12.4929   24.0463    9.1494 O.co2       1 MOL      -0.5688
     17 OD2        11.4577   22.5987    7.6481 O.co2       1 MOL      -0.5688
     18 N           7.6554   25.9681    6.3526 N.am        1 MOL      -0.2694
     19 CA          6.7848   27.0138    5.8936 C.3         1 MOL       0.0946
     20 C           5.7145   27.2346    6.9004 C.2         1 MOL       0.0601
     21 O           4.6169   27.9545    6.5575 O.co2       1 MOL      -0.5666
     22 CB          6.1903   26.6232    4.4978 C.3         1 MOL      -0.0156
     23 CG          7.1938   26.4643    3.3007 C.3         1 MOL      -0.0431
     24 CD1         6.4374   26.2358    1.9638 C.3         1 MOL      -0.0625
     25 CD2         8.1942   27.6637    3.1775 C.3         1 MOL      -0.0625
     26 OXT         6.0094   27.1817    8.2231 O.co2       1 MOL      -0.5666
     27 H1         14.5256   24.6944    3.7489 H           1 MOL       0.2015
     28 H2         14.0041   23.9420    5.1621 H           1 MOL       0.2015
     29 H3         14.3035   25.5920    5.1392 H           1 MOL       0.2015
     30 H4         12.5893   25.9661    3.5714 H           1 MOL       0.1099
     31 H5         12.2935   24.1945    2.1977 H           1 MOL       0.0363
     32 H6         10.9429   23.9042    3.2838 H           1 MOL       0.0363
     33 H7         12.8798   22.4225    4.5957 H           1 MOL       0.0434
     34 H8         13.5824   22.4030    2.9650 H           1 MOL       0.0434
     35 H9         10.5395   23.8164    5.1500 H           1 MOL       0.1886
     36 H10         9.0631   23.9516    6.6620 H           1 MOL       0.0819
     37 H11         9.5363   24.4130    8.8771 H           1 MOL       0.0478
     38 H12        10.6761   25.7086    8.5145 H           1 MOL       0.0478
     39 H13         7.2313   25.1133    6.5429 H           1 MOL       0.1875
     40 H14         7.3202   27.9666    5.7808 H           1 MOL       0.0726
     41 H15         5.4461   27.3869    4.2269 H           1 MOL       0.0308
     42 H16         5.6528   25.6641    4.6070 H           1 MOL       0.0308
     43 H17         7.7874   25.5561    3.4860 H           1 MOL       0.0297
     44 H18         7.1499   25.9978    1.1635 H           1 MOL       0.0232
     45 H19         5.8753   27.1363    1.6834 H           1 MOL       0.0232
     46 H20         5.7349   25.3946    2.0597 H           1 MOL       0.0232
     47 H21         8.8172   27.7171    4.0780 H           1 MOL       0.0232
     48 H22         7.6420   28.6136    3.0581 H           1 MOL       0.0232
     49 H23         8.8437   27.5060    2.3044 H           1 MOL       0.0232
@<TRIPOS>BOND
     1     3     2   1
     2     2     5   1
     3     2     1   1
     4     5     6   1
     5     6     7   1
     6     7     8  ar
     7     7     9  ar
     8     3     4   2
     9    12    11   1
    10    11    14   1
    11    11    10   1
    12    14    15   1
    13    15    16  ar
    14    15    17  ar
    15    12    13   2
    16    19    20   1
    17    19    22   1
    18    18    19   1
    19    22    23   1
    20    23    25   1
    21    23    24   1
    22    20    26  ar
    23    20    21  ar
    24    10     3  am
    25    12    18  am
    26     1    27   1
    27     1    28   1
    28     1    29   1
    29     2    30   1
    30     5    31   1
    31     5    32   1
    32     6    33   1
    33     6    34   1
    34    10    35   1
    35    11    36   1
    36    14    37   1
    37    14    38   1
    38    18    39   1
    39    19    40   1
    40    22    41   1
    41    22    42   1
    42    23    43   1
    43    24    44   1
    44    24    45   1
    45    24    46   1
    46    25    47   1
    47    25    48   1
    48    25    49   1
@<TRIPOS>SUBSTRUCTURE
     1  MOL      2

