@<TRIPOS>MOLECULE
1a30_ligand_005
    49    48
SMALL
GAST_HUCK
****
This file was generated by PARSER (from files_GN.cpp)

@<TRIPOS>ATOM
      1 N          14.4813   24.4336    4.7587 N.4         1 MOL       0.2380
      2 CA         13.1470   23.8217    4.9327 C.3         1 MOL       0.0665
      3 C          12.1539   24.6161    4.2207 C.2         1 MOL       0.2269
      4 O          11.9231   25.7558    4.6088 O.2         1 MOL      -0.3907
      5 CB         12.8167   23.6478    6.4541 C.3         1 MOL       0.0194
      6 CG         11.3386   23.3058    6.8113 C.3         1 MOL       0.0075
      7 CD         10.7588   22.1665    6.0731 C.2         1 MOL       0.0351
      8 OE1        10.1037   22.3846    4.9008 O.co2       1 MOL      -0.5690
      9 OE2        11.0759   20.8812    6.4013 O.co2       1 MOL      -0.5690
     10 N          11.4725   24.0745    3.2131 N.am        1 MOL      -0.2595
     11 CA         10.3890   24.6823    2.4820 C.3         1 MOL       0.1424
     12 C           9.2416   24.9560    3.3632 C.2         1 MOL       0.2051
     13 O           8.6526   24.0134    3.8806 O.2         1 MOL      -0.3943
     14 CB          9.9799   23.8457    1.2374 C.3         1 MOL       0.0406
     15 CG          9.7319   22.4143    1.4929 C.2         1 MOL       0.0393
     16 OD1        10.4608   21.7357    2.4128 O.co2       1 MOL      -0.5688
     17 OD2         8.8227   21.7273    0.7534 O.co2       1 MOL      -0.5688
     18 N           8.9297   26.2204    3.6209 N.am        1 MOL      -0.2694
     19 CA          7.9681   26.7645    4.5354 C.3         1 MOL       0.0946
     20 C           8.4909   26.7511    5.9242 C.2         1 MOL       0.0601
     21 O           8.6134   27.9114    6.6182 O.co2       1 MOL      -0.5666
     22 CB          6.5246   26.1944    4.4647 C.3         1 MOL      -0.0156
     23 CG          5.6926   26.4268    3.1556 C.3         1 MOL      -0.0431
     24 CD1         4.2677   26.9471    3.5142 C.3         1 MOL      -0.0625
     25 CD2         6.3518   27.3789    2.1183 C.3         1 MOL      -0.0625
     26 OXT         8.6664   25.5942    6.5988 O.co2       1 MOL      -0.5666
     27 H1         15.1915   23.8185    5.1651 H           1 MOL       0.2015
     28 H2         14.5212   25.3487    5.2126 H           1 MOL       0.2015
     29 H3         14.6791   24.5585    3.7656 H           1 MOL       0.2015
     30 H4         13.2113   22.8173    4.4945 H           1 MOL       0.1099
     31 H5         13.0800   24.5746    6.9767 H           1 MOL       0.0363
     32 H6         13.4657   22.8554    6.8615 H           1 MOL       0.0363
     33 H7         10.7275   24.1886    6.6186 H           1 MOL       0.0434
     34 H8         11.2700   23.0921    7.8805 H           1 MOL       0.0434
     35 H9         11.7282   23.1790    2.9505 H           1 MOL       0.1886
     36 H10        10.7763   25.6289    2.0753 H           1 MOL       0.0819
     37 H11        10.7683   23.9157    0.4861 H           1 MOL       0.0478
     38 H12         9.0806   24.2892    0.8011 H           1 MOL       0.0478
     39 H13         9.4786   26.8801    3.1695 H           1 MOL       0.1875
     40 H14         7.8926   27.8135    4.2465 H           1 MOL       0.0726
     41 H15         5.9759   26.6268    5.3143 H           1 MOL       0.0308
     42 H16         6.5560   25.1084    4.6413 H           1 MOL       0.0308
     43 H17         5.5737   25.4559    2.6672 H           1 MOL       0.0297
     44 H18         3.6306   26.9659    2.6245 H           1 MOL       0.0232
     45 H19         4.3244   27.9633    3.9198 H           1 MOL       0.0232
     46 H20         3.7952   26.3017    4.2580 H           1 MOL       0.0232
     47 H21         7.2476   26.9293    1.6947 H           1 MOL       0.0232
     48 H22         6.6224   28.3219    2.5901 H           1 MOL       0.0232
     49 H23         5.6638   27.5779    1.2920 H           1 MOL       0.0232
@<TRIPOS>BOND
     1     3     2   1
     2     2     5   1
     3     2     1   1
     4     5     6   1
     5     6     7   1
     6     7     8  ar
     7     7     9  ar
     8     3     4   2
     9    12    11   1
    10    11    14   1
    11    11    10   1
    12    14    15   1
    13    15    16  ar
    14    15    17  ar
    15    12    13   2
    16    19    20   1
    17    19    22   1
    18    18    19   1
    19    22    23   1
    20    23    25   1
    21    23    24   1
    22    20    26  ar
    23    20    21  ar
    24    10     3  am
    25    12    18  am
    26     1    27   1
    27     1    28   1
    28     1    29   1
    29     2    30   1
    30     5    31   1
    31     5    32   1
    32     6    33   1
    33     6    34   1
    34    10    35   1
    35    11    36   1
    36    14    37   1
    37    14    38   1
    38    18    39   1
    39    19    40   1
    40    22    41   1
    41    22    42   1
    42    23    43   1
    43    24    44   1
    44    24    45   1
    45    24    46   1
    46    25    47   1
    47    25    48   1
    48    25    49   1
@<TRIPOS>SUBSTRUCTURE
     1  MOL      2

