@<TRIPOS>MOLECULE
1bcu_ligand_048
    27    29
SMALL
GAST_HUCK
****
This file was generated by PARSER (from files_GN.cpp)

@<TRIPOS>ATOM
      1 C1          0.2107   13.8863   42.2313 C.ar        1 PRL      -0.0483
      2 C2          1.2237   13.8641   41.2540 C.ar        1 PRL      -0.0317
      3 C3          2.5035   14.3763   41.5467 C.ar        1 PRL       0.0415
      4 C4          2.7764   14.8968   42.8271 C.ar        1 PRL      -0.0313
      5 C5          1.4362   16.0622   47.2702 C.ar        1 PRL      -0.0313
      6 C6          0.4603   16.1744   48.2798 C.ar        1 PRL       0.0415
      7 C7         -0.8533   15.7230   48.0410 C.ar        1 PRL      -0.0317
      8 C8         -1.1925   15.1507   46.8006 C.ar        1 PRL      -0.0483
      9 C9         -0.5211   14.4859   44.5159 C.ar        1 PRL      -0.0279
     10 N10         2.0290   15.4322   45.0376 N.ar        1 PRL      -0.3286
     11 C11         1.7676   14.9184   43.8089 C.ar        1 PRL       0.0162
     12 C12        -0.2231   15.0398   45.7800 C.ar        1 PRL       0.0016
     13 C13         0.4705   14.4189   43.5132 C.ar        1 PRL       0.0016
     14 C14         1.0970   15.5077   46.0212 C.ar        1 PRL       0.0162
     15 N15         3.4646   14.3784   40.6074 N.pl3       1 PRL      -0.3324
     16 N16         0.7767   16.7234   49.4649 N.pl3       1 PRL      -0.3324
     17 H1         -0.7157   13.5197   41.9982 H           1 PRL       0.0666
     18 H2          1.0207   13.4830   40.3261 H           1 PRL       0.0587
     19 H3          3.7062   15.2677   43.0426 H           1 PRL       0.0438
     20 H4          2.3888   16.3973   47.4383 H           1 PRL       0.0438
     21 H5         -1.5676   15.8059   48.7691 H           1 PRL       0.0587
     22 H6         -2.1502   14.8248   46.6463 H           1 PRL       0.0666
     23 H7         -1.4652   14.1399   44.3218 H           1 PRL       0.0848
     24 H8          3.2891   14.0070   39.7287 H           1 PRL       0.1756
     25 H9          4.3337   14.7573   40.8122 H           1 PRL       0.1756
     26 H10         1.6784   17.0396   49.6335 H           1 PRL       0.1756
     27 H11         0.0850   16.8564   50.1305 H           1 PRL       0.1756
@<TRIPOS>BOND
     1     1    13  ar
     2     1     2  ar
     3     2     3  ar
     4     3    15   1
     5     3     4  ar
     6     4    11  ar
     7    11    10  ar
     8    11    13  ar
     9    13     9  ar
    10     9    12  ar
    11    12     8  ar
    12    12    14  ar
    13    14     5  ar
    14    14    10  ar
    15     5     6  ar
    16     6    16   1
    17     6     7  ar
    18     7     8  ar
    19     1    17   1
    20     2    18   1
    21     4    19   1
    22     5    20   1
    23     7    21   1
    24     8    22   1
    25     9    23   1
    26    15    24   1
    27    15    25   1
    28    16    26   1
    29    16    27   1
@<TRIPOS>SUBSTRUCTURE
     1  PRL      1

