@<TRIPOS>MOLECULE
1bcu_ligand_056
    27    29
SMALL
GAST_HUCK
****
This file was generated by PARSER (from files_GN.cpp)

@<TRIPOS>ATOM
      1 C1          8.2148   20.8294   53.6046 C.ar        1 PRL      -0.0483
      2 C2          8.5734   19.6556   52.9162 C.ar        1 PRL      -0.0317
      3 C3          8.1682   18.3951   53.3993 C.ar        1 PRL       0.0415
      4 C4          7.3849   18.3100   54.5682 C.ar        1 PRL      -0.0313
      5 C5          5.1443   20.3359   58.2898 C.ar        1 PRL      -0.0313
      6 C6          4.7397   21.4697   59.0234 C.ar        1 PRL       0.0415
      7 C7          5.1164   22.7567   58.5891 C.ar        1 PRL      -0.0317
      8 C8          5.8988   22.9155   57.4303 C.ar        1 PRL      -0.0483
      9 C9          7.0766   21.9031   55.5129 C.ar        1 PRL      -0.0279
     10 N10         6.2884   19.4001   56.4011 N.ar        1 PRL      -0.3286
     11 C11         7.0278   19.4813   55.2647 C.ar        1 PRL       0.0162
     12 C12         6.3021   21.7865   56.6864 C.ar        1 PRL       0.0016
     13 C13         7.4465   20.7522   54.7858 C.ar        1 PRL       0.0016
     14 C14         5.9153   20.4898   57.1208 C.ar        1 PRL       0.0162
     15 N15         8.5390   17.2777   52.7498 N.pl3       1 PRL      -0.3324
     16 N16         3.9899   21.3272   60.1307 N.pl3       1 PRL      -0.3324
     17 H1          8.5201   21.7363   53.2418 H           1 PRL       0.0666
     18 H2          9.1343   19.7246   52.0635 H           1 PRL       0.0587
     19 H3          7.0802   17.3970   54.9179 H           1 PRL       0.0438
     20 H4          4.8721   19.3987   58.6004 H           1 PRL       0.0438
     21 H5          4.8216   23.5844   59.1132 H           1 PRL       0.0587
     22 H6          6.1654   23.8564   57.1303 H           1 PRL       0.0666
     23 H7          7.3706   22.8280   55.1862 H           1 PRL       0.0848
     24 H8          9.0918   17.3390   51.9549 H           1 PRL       0.1756
     25 H9          8.2714   16.4074   53.0843 H           1 PRL       0.1756
     26 H10         3.7287   20.4430   60.4321 H           1 PRL       0.1756
     27 H11         3.7029   22.1096   60.6275 H           1 PRL       0.1756
@<TRIPOS>BOND
     1     1    13  ar
     2     1     2  ar
     3     2     3  ar
     4     3    15   1
     5     3     4  ar
     6     4    11  ar
     7    11    10  ar
     8    11    13  ar
     9    13     9  ar
    10     9    12  ar
    11    12     8  ar
    12    12    14  ar
    13    14     5  ar
    14    14    10  ar
    15     5     6  ar
    16     6    16   1
    17     6     7  ar
    18     7     8  ar
    19     1    17   1
    20     2    18   1
    21     4    19   1
    22     5    20   1
    23     7    21   1
    24     8    22   1
    25     9    23   1
    26    15    24   1
    27    15    25   1
    28    16    26   1
    29    16    27   1
@<TRIPOS>SUBSTRUCTURE
     1  PRL      1

