@<TRIPOS>MOLECULE
1bcu_ligand_073
    27    29
SMALL
GAST_HUCK
****
This file was generated by PARSER (from files_GN.cpp)

@<TRIPOS>ATOM
      1 C1         13.7145   17.1005   54.5105 C.ar        1 PRL      -0.0483
      2 C2         12.5458   16.9865   53.7337 C.ar        1 PRL      -0.0317
      3 C3         11.9018   15.7402   53.5958 C.ar        1 PRL       0.0415
      4 C4         12.4238   14.6052   54.2476 C.ar        1 PRL      -0.0313
      5 C5         15.6771   12.4820   57.0507 C.ar        1 PRL      -0.0313
      6 C6         16.8415   12.5177   57.8443 C.ar        1 PRL       0.0415
      7 C7         17.5414   13.7300   58.0079 C.ar        1 PRL      -0.0317
      8 C8         17.0832   14.9049   57.3847 C.ar        1 PRL      -0.0483
      9 C9         15.4195   16.0338   55.9470 C.ar        1 PRL      -0.0279
     10 N10        14.0919   13.6210   55.6598 N.ar        1 PRL      -0.3286
     11 C11        13.5891   14.7152   55.0321 C.ar        1 PRL       0.0162
     12 C12        15.9168   14.8794   56.5885 C.ar        1 PRL       0.0016
     13 C13        14.2470   15.9679   55.1642 C.ar        1 PRL       0.0016
     14 C14        15.2137   13.6551   56.4239 C.ar        1 PRL       0.0162
     15 N15        10.7910   15.6367   52.8460 N.pl3       1 PRL      -0.3324
     16 N16        17.2828   11.3976   58.4441 N.pl3       1 PRL      -0.3324
     17 H1         14.1690   18.0134   54.5980 H           1 PRL       0.0666
     18 H2         12.1657   17.8154   53.2708 H           1 PRL       0.0587
     19 H3         11.9568   13.6995   54.1521 H           1 PRL       0.0438
     20 H4         15.1660   11.6032   56.9298 H           1 PRL       0.0438
     21 H5         18.3880   13.7633   58.5825 H           1 PRL       0.0587
     22 H6         17.6044   15.7757   57.5161 H           1 PRL       0.0666
     23 H7         15.9143   16.9251   56.0489 H           1 PRL       0.0848
     24 H8         10.4324   16.4182   52.3966 H           1 PRL       0.1756
     25 H9         10.3456   14.7796   52.7506 H           1 PRL       0.1756
     26 H10        16.8010   10.5631   58.3322 H           1 PRL       0.1756
     27 H11        18.0846   11.4218   58.9901 H           1 PRL       0.1756
@<TRIPOS>BOND
     1     1    13  ar
     2     1     2  ar
     3     2     3  ar
     4     3    15   1
     5     3     4  ar
     6     4    11  ar
     7    11    10  ar
     8    11    13  ar
     9    13     9  ar
    10     9    12  ar
    11    12     8  ar
    12    12    14  ar
    13    14     5  ar
    14    14    10  ar
    15     5     6  ar
    16     6    16   1
    17     6     7  ar
    18     7     8  ar
    19     1    17   1
    20     2    18   1
    21     4    19   1
    22     5    20   1
    23     7    21   1
    24     8    22   1
    25     9    23   1
    26    15    24   1
    27    15    25   1
    28    16    26   1
    29    16    27   1
@<TRIPOS>SUBSTRUCTURE
     1  PRL      1

