@<TRIPOS>MOLECULE
1bcu_ligand_044
    27    29
SMALL
GAST_HUCK
****
This file was generated by PARSER (from files_GN.cpp)

@<TRIPOS>ATOM
      1 C1          1.9141   15.4822   58.0985 C.ar        1 PRL      -0.0483
      2 C2          1.1207   14.3419   57.8723 C.ar        1 PRL      -0.0317
      3 C3          1.4412   13.4489   56.8307 C.ar        1 PRL       0.0415
      4 C4          2.5565   13.7044   56.0065 C.ar        1 PRL      -0.0313
      5 C5          6.2804   16.4125   54.6786 C.ar        1 PRL      -0.0313
      6 C6          7.0690   17.5749   54.7938 C.ar        1 PRL       0.0415
      7 C7          6.7749   18.5223   55.7948 C.ar        1 PRL      -0.0317
      8 C8          5.7190   18.3008   56.6966 C.ar        1 PRL      -0.0483
      9 C9          3.8401   16.8910   57.4564 C.ar        1 PRL      -0.0279
     10 N10         4.4179   15.0999   55.4262 N.ar        1 PRL      -0.3286
     11 C11         3.3507   14.8471   56.2264 C.ar        1 PRL       0.0162
     12 C12         4.9272   17.1373   56.5909 C.ar        1 PRL       0.0016
     13 C13         3.0327   15.7468   57.2779 C.ar        1 PRL       0.0016
     14 C14         5.2069   16.1954   55.5646 C.ar        1 PRL       0.0162
     15 N15         0.6849   12.3565   56.6198 N.pl3       1 PRL      -0.3324
     16 N16         8.0895   17.7853   53.9431 N.pl3       1 PRL      -0.3324
     17 H1          1.6632   16.1176   58.8615 H           1 PRL       0.0666
     18 H2          0.3126   14.1616   58.4751 H           1 PRL       0.0587
     19 H3          2.7924   13.0580   55.2489 H           1 PRL       0.0438
     20 H4          6.4790   15.7298   53.9417 H           1 PRL       0.0438
     21 H5          7.3361   19.3741   55.8777 H           1 PRL       0.0587
     22 H6          5.5248   19.0015   57.4177 H           1 PRL       0.0666
     23 H7          3.6198   17.5572   58.2017 H           1 PRL       0.0848
     24 H8         -0.0791   12.1771   57.1899 H           1 PRL       0.1756
     25 H9          0.9102   11.7386   55.9062 H           1 PRL       0.1756
     26 H10         8.2891   17.1340   53.2511 H           1 PRL       0.1756
     27 H11         8.6313   18.5857   54.0196 H           1 PRL       0.1756
@<TRIPOS>BOND
     1     1    13  ar
     2     1     2  ar
     3     2     3  ar
     4     3    15   1
     5     3     4  ar
     6     4    11  ar
     7    11    10  ar
     8    11    13  ar
     9    13     9  ar
    10     9    12  ar
    11    12     8  ar
    12    12    14  ar
    13    14     5  ar
    14    14    10  ar
    15     5     6  ar
    16     6    16   1
    17     6     7  ar
    18     7     8  ar
    19     1    17   1
    20     2    18   1
    21     4    19   1
    22     5    20   1
    23     7    21   1
    24     8    22   1
    25     9    23   1
    26    15    24   1
    27    15    25   1
    28    16    26   1
    29    16    27   1
@<TRIPOS>SUBSTRUCTURE
     1  PRL      1

