@<TRIPOS>MOLECULE
1bcu_ligand_070
    27    29
SMALL
GAST_HUCK
****
This file was generated by PARSER (from files_GN.cpp)

@<TRIPOS>ATOM
      1 C1          9.8375   11.1914   48.8599 C.ar        1 PRL      -0.0483
      2 C2         10.5886   11.8590   49.8442 C.ar        1 PRL      -0.0317
      3 C3         10.5280   13.2626   49.9548 C.ar        1 PRL       0.0415
      4 C4          9.7105   14.0005   49.0753 C.ar        1 PRL      -0.0313
      5 C5          6.6316   14.2668   45.4080 C.ar        1 PRL      -0.0313
      6 C6          5.8440   13.6636   44.4065 C.ar        1 PRL       0.0415
      7 C7          5.8629   12.2632   44.2473 C.ar        1 PRL      -0.0317
      8 C8          6.6625   11.4641   45.0850 C.ar        1 PRL      -0.0483
      9 C9          8.2555   11.2933   46.9650 C.ar        1 PRL      -0.0279
     10 N10         8.1783   14.0498   47.2294 N.ar        1 PRL      -0.3286
     11 C11         8.9611   13.3387   48.0825 C.ar        1 PRL       0.0162
     12 C12         7.4475   12.0586   46.0969 C.ar        1 PRL       0.0016
     13 C13         9.0203   11.9229   47.9705 C.ar        1 PRL       0.0016
     14 C14         7.4287   13.4711   46.2551 C.ar        1 PRL       0.0162
     15 N15        11.2651   13.8965   50.8842 N.pl3       1 PRL      -0.3324
     16 N16         5.0721   14.4184   43.6047 N.pl3       1 PRL      -0.3324
     17 H1          9.8958   10.1717   48.7956 H           1 PRL       0.0666
     18 H2         11.1829   11.3161   50.4764 H           1 PRL       0.0587
     19 H3          9.6639   15.0198   49.1564 H           1 PRL       0.0438
     20 H4          6.6214   15.2840   45.5239 H           1 PRL       0.0438
     21 H5          5.2940   11.8176   43.5225 H           1 PRL       0.0587
     22 H6          6.6627   10.4496   44.9525 H           1 PRL       0.0666
     23 H7          8.2889   10.2750   46.8635 H           1 PRL       0.0848
     24 H8         11.8455   13.3894   51.4735 H           1 PRL       0.1756
     25 H9         11.2397   14.8642   50.9494 H           1 PRL       0.1756
     26 H10         5.0506   15.3815   43.7141 H           1 PRL       0.1756
     27 H11         4.5289   13.9998   42.9187 H           1 PRL       0.1756
@<TRIPOS>BOND
     1     1    13  ar
     2     1     2  ar
     3     2     3  ar
     4     3    15   1
     5     3     4  ar
     6     4    11  ar
     7    11    10  ar
     8    11    13  ar
     9    13     9  ar
    10     9    12  ar
    11    12     8  ar
    12    12    14  ar
    13    14     5  ar
    14    14    10  ar
    15     5     6  ar
    16     6    16   1
    17     6     7  ar
    18     7     8  ar
    19     1    17   1
    20     2    18   1
    21     4    19   1
    22     5    20   1
    23     7    21   1
    24     8    22   1
    25     9    23   1
    26    15    24   1
    27    15    25   1
    28    16    26   1
    29    16    27   1
@<TRIPOS>SUBSTRUCTURE
     1  PRL      1

