@<TRIPOS>MOLECULE
1bcu_ligand_081
    27    29
SMALL
GAST_HUCK
****
This file was generated by PARSER (from files_GN.cpp)

@<TRIPOS>ATOM
      1 C1          7.6697   15.3399   51.1490 C.ar        1 PRL      -0.0483
      2 C2          8.5013   14.2195   51.3327 C.ar        1 PRL      -0.0317
      3 C3          7.9433   12.9300   51.4426 C.ar        1 PRL       0.0415
      4 C4          6.5458   12.7624   51.3692 C.ar        1 PRL      -0.0313
      5 C5          2.1099   14.5170   50.9043 C.ar        1 PRL      -0.0313
      6 C6          1.2147   15.5928   50.7376 C.ar        1 PRL       0.0415
      7 C7          1.7118   16.9056   50.6115 C.ar        1 PRL      -0.0317
      8 C8          3.0974   17.1479   50.6563 C.ar        1 PRL      -0.0483
      9 C9          5.3974   16.2769   50.8920 C.ar        1 PRL      -0.0279
     10 N10         4.3612   13.7192   51.1234 N.ar        1 PRL      -0.3286
     11 C11         5.7081   13.8801   51.1877 C.ar        1 PRL       0.0162
     12 C12         4.0011   16.0774   50.8304 C.ar        1 PRL       0.0016
     13 C13         6.2685   15.1809   51.0742 C.ar        1 PRL       0.0016
     14 C14         3.4982   14.7538   50.9526 C.ar        1 PRL       0.0162
     15 N15         8.7424   11.8625   51.6188 N.pl3       1 PRL      -0.3324
     16 N16        -0.1112   15.3712   50.7070 N.pl3       1 PRL      -0.3324
     17 H1          8.0934   16.2684   51.0716 H           1 PRL       0.0666
     18 H2          9.5151   14.3495   51.3876 H           1 PRL       0.0587
     19 H3          6.1375   11.8272   51.4502 H           1 PRL       0.0438
     20 H4          1.7520   13.5625   50.9990 H           1 PRL       0.0438
     21 H5          1.0682   17.6918   50.4924 H           1 PRL       0.0587
     22 H6          3.4390   18.1081   50.5655 H           1 PRL       0.0666
     23 H7          5.7805   17.2229   50.8084 H           1 PRL       0.0848
     24 H8          9.7048   11.9773   51.6701 H           1 PRL       0.1756
     25 H9          8.3586   10.9743   51.6946 H           1 PRL       0.1756
     26 H10        -0.4578   14.4694   50.7952 H           1 PRL       0.1756
     27 H11        -0.7245   16.1155   50.5980 H           1 PRL       0.1756
@<TRIPOS>BOND
     1     1    13  ar
     2     1     2  ar
     3     2     3  ar
     4     3    15   1
     5     3     4  ar
     6     4    11  ar
     7    11    10  ar
     8    11    13  ar
     9    13     9  ar
    10     9    12  ar
    11    12     8  ar
    12    12    14  ar
    13    14     5  ar
    14    14    10  ar
    15     5     6  ar
    16     6    16   1
    17     6     7  ar
    18     7     8  ar
    19     1    17   1
    20     2    18   1
    21     4    19   1
    22     5    20   1
    23     7    21   1
    24     8    22   1
    25     9    23   1
    26    15    24   1
    27    15    25   1
    28    16    26   1
    29    16    27   1
@<TRIPOS>SUBSTRUCTURE
     1  PRL      1

