@<TRIPOS>MOLECULE
1bcu_ligand_027
    27    29
SMALL
GAST_HUCK
****
This file was generated by PARSER (from files_GN.cpp)

@<TRIPOS>ATOM
      1 C1          2.7038   16.3394   58.9341 C.ar        1 PRL      -0.0483
      2 C2          3.7890   17.1947   59.2059 C.ar        1 PRL      -0.0317
      3 C3          4.9252   17.1913   58.3717 C.ar        1 PRL       0.0415
      4 C4          4.9684   16.3356   57.2523 C.ar        1 PRL      -0.0313
      5 C5          3.0399   12.9458   54.4615 C.ar        1 PRL      -0.0313
      6 C6          1.9933   12.0632   54.1281 C.ar        1 PRL       0.0415
      7 C7          0.8382   12.0095   54.9326 C.ar        1 PRL      -0.0317
      8 C8          0.7253   12.8327   56.0688 C.ar        1 PRL      -0.0483
      9 C9          1.6848   14.5874   57.5216 C.ar        1 PRL      -0.0279
     10 N10         3.9307   14.6415   55.9046 N.ar        1 PRL      -0.3286
     11 C11         3.8847   15.4772   56.9750 C.ar        1 PRL       0.0162
     12 C12         1.7640   13.7286   56.4035 C.ar        1 PRL       0.0016
     13 C13         2.7439   15.4704   57.8219 C.ar        1 PRL       0.0016
     14 C14         2.9279   13.7819   55.5902 C.ar        1 PRL       0.0162
     15 N15         5.9650   17.9961   58.6565 N.pl3       1 PRL      -0.3324
     16 N16         2.0964   11.2725   53.0442 N.pl3       1 PRL      -0.3324
     17 H1          1.8921   16.3496   59.5573 H           1 PRL       0.0666
     18 H2          3.7494   17.8119   60.0207 H           1 PRL       0.0587
     19 H3          5.7905   16.3309   56.6430 H           1 PRL       0.0438
     20 H4          3.8818   12.9856   53.8808 H           1 PRL       0.0438
     21 H5          0.0726   11.3733   54.6943 H           1 PRL       0.0587
     22 H6         -0.1221   12.7808   56.6404 H           1 PRL       0.0666
     23 H7          0.8524   14.5678   58.1196 H           1 PRL       0.0848
     24 H8          5.9275   18.5818   59.4296 H           1 PRL       0.1756
     25 H9          6.7640   17.9827   58.1060 H           1 PRL       0.1756
     26 H10         2.8924   11.3060   52.4906 H           1 PRL       0.1756
     27 H11         1.3740   10.6677   52.8121 H           1 PRL       0.1756
@<TRIPOS>BOND
     1     1    13  ar
     2     1     2  ar
     3     2     3  ar
     4     3    15   1
     5     3     4  ar
     6     4    11  ar
     7    11    10  ar
     8    11    13  ar
     9    13     9  ar
    10     9    12  ar
    11    12     8  ar
    12    12    14  ar
    13    14     5  ar
    14    14    10  ar
    15     5     6  ar
    16     6    16   1
    17     6     7  ar
    18     7     8  ar
    19     1    17   1
    20     2    18   1
    21     4    19   1
    22     5    20   1
    23     7    21   1
    24     8    22   1
    25     9    23   1
    26    15    24   1
    27    15    25   1
    28    16    26   1
    29    16    27   1
@<TRIPOS>SUBSTRUCTURE
     1  PRL      1

