@<TRIPOS>MOLECULE
1bcu_ligand_065
    27    29
SMALL
GAST_HUCK
****
This file was generated by PARSER (from files_GN.cpp)

@<TRIPOS>ATOM
      1 C1         17.3929   16.1125   59.8175 C.ar        1 PRL      -0.0483
      2 C2         18.3327   15.0644   59.8143 C.ar        1 PRL      -0.0317
      3 C3         17.9247   13.7446   59.5327 C.ar        1 PRL       0.0415
      4 C4         16.5723   13.4745   59.2395 C.ar        1 PRL      -0.0313
      5 C5         12.0213   14.8798   58.6828 C.ar        1 PRL      -0.0313
      6 C6         11.0286   15.8793   58.6591 C.ar        1 PRL       0.0415
      7 C7         11.3754   17.2154   58.9386 C.ar        1 PRL      -0.0317
      8 C8         12.7048   17.5573   59.2418 C.ar        1 PRL      -0.0483
      9 C9         15.0580   16.8673   59.5417 C.ar        1 PRL      -0.0279
     10 N10        14.3198   14.2589   58.9780 N.ar        1 PRL      -0.3286
     11 C11        15.6266   14.5193   59.2459 C.ar        1 PRL       0.0162
     12 C12        13.7083   16.5658   59.2557 C.ar        1 PRL       0.0016
     13 C13        16.0332   15.8493   59.5392 C.ar        1 PRL       0.0016
     14 C14        13.3594   15.2177   58.9727 C.ar        1 PRL       0.0162
     15 N15        18.8239   12.7455   59.5525 N.pl3       1 PRL      -0.3324
     16 N16         9.7527   15.5628   58.3731 N.pl3       1 PRL      -0.3324
     17 H1         17.7066   17.0637   60.0264 H           1 PRL       0.0666
     18 H2         19.3125   15.2687   60.0215 H           1 PRL       0.0587
     19 H3         16.2745   12.5192   59.0284 H           1 PRL       0.0438
     20 H4         11.7753   13.9079   58.4817 H           1 PRL       0.0438
     21 H5         10.6623   17.9493   58.9280 H           1 PRL       0.0587
     22 H6         12.9348   18.5329   59.4419 H           1 PRL       0.0666
     23 H7         15.3295   17.8321   59.7553 H           1 PRL       0.0848
     24 H8         19.7522   12.9305   59.7666 H           1 PRL       0.1756
     25 H9         18.5453   11.8342   59.3672 H           1 PRL       0.1756
     26 H10         9.5094   14.6427   58.1784 H           1 PRL       0.1756
     27 H11         9.0865   16.2668   58.3189 H           1 PRL       0.1756
@<TRIPOS>BOND
     1     1    13  ar
     2     1     2  ar
     3     2     3  ar
     4     3    15   1
     5     3     4  ar
     6     4    11  ar
     7    11    10  ar
     8    11    13  ar
     9    13     9  ar
    10     9    12  ar
    11    12     8  ar
    12    12    14  ar
    13    14     5  ar
    14    14    10  ar
    15     5     6  ar
    16     6    16   1
    17     6     7  ar
    18     7     8  ar
    19     1    17   1
    20     2    18   1
    21     4    19   1
    22     5    20   1
    23     7    21   1
    24     8    22   1
    25     9    23   1
    26    15    24   1
    27    15    25   1
    28    16    26   1
    29    16    27   1
@<TRIPOS>SUBSTRUCTURE
     1  PRL      1

