@<TRIPOS>MOLECULE
1bcu_ligand_069
    27    29
SMALL
GAST_HUCK
****
This file was generated by PARSER (from files_GN.cpp)

@<TRIPOS>ATOM
      1 C1         17.2461   15.1204   57.6405 C.ar        1 PRL      -0.0483
      2 C2         17.7008   14.0047   58.3677 C.ar        1 PRL      -0.0317
      3 C3         17.0044   12.7808   58.3008 C.ar        1 PRL       0.0415
      4 C4         15.8479   12.6742   57.5027 C.ar        1 PRL      -0.0313
      5 C5         12.6150   14.5431   54.5000 C.ar        1 PRL      -0.0313
      6 C6         12.0954   15.6176   53.7502 C.ar        1 PRL       0.0415
      7 C7         12.7382   16.8715   53.7834 C.ar        1 PRL      -0.0317
      8 C8         13.9011   17.0528   54.5541 C.ar        1 PRL      -0.0483
      9 C9         15.5938   16.1176   56.0947 C.ar        1 PRL      -0.0279
     10 N10        14.2732   13.6858   56.0041 N.ar        1 PRL      -0.3286
     11 C11        15.3882   13.7882   56.7723 C.ar        1 PRL       0.0162
     12 C12        14.4295   15.9820   55.3089 C.ar        1 PRL       0.0016
     13 C13        16.0885   15.0233   56.8380 C.ar        1 PRL       0.0016
     14 C14        13.7740   14.7210   55.2796 C.ar        1 PRL       0.0162
     15 N15        17.4428   11.7170   58.9968 N.pl3       1 PRL      -0.3324
     16 N16        10.9884   15.4483   53.0066 N.pl3       1 PRL      -0.3324
     17 H1         17.7658   16.0001   57.7035 H           1 PRL       0.0666
     18 H2         18.5408   14.0902   58.9455 H           1 PRL       0.0587
     19 H3         15.3397   11.7870   57.4539 H           1 PRL       0.0438
     20 H4         12.1474   13.6326   54.4793 H           1 PRL       0.0438
     21 H5         12.3600   17.6584   53.2488 H           1 PRL       0.0587
     22 H6         14.3532   17.9702   54.5676 H           1 PRL       0.0666
     23 H7         16.0840   17.0159   56.1273 H           1 PRL       0.0848
     24 H8         18.2405   11.7889   59.5449 H           1 PRL       0.1756
     25 H9         16.9643   10.8738   58.9504 H           1 PRL       0.1756
     26 H10        10.5455   14.5853   52.9822 H           1 PRL       0.1756
     27 H11        10.6309   16.1882   52.4906 H           1 PRL       0.1756
@<TRIPOS>BOND
     1     1    13  ar
     2     1     2  ar
     3     2     3  ar
     4     3    15   1
     5     3     4  ar
     6     4    11  ar
     7    11    10  ar
     8    11    13  ar
     9    13     9  ar
    10     9    12  ar
    11    12     8  ar
    12    12    14  ar
    13    14     5  ar
    14    14    10  ar
    15     5     6  ar
    16     6    16   1
    17     6     7  ar
    18     7     8  ar
    19     1    17   1
    20     2    18   1
    21     4    19   1
    22     5    20   1
    23     7    21   1
    24     8    22   1
    25     9    23   1
    26    15    24   1
    27    15    25   1
    28    16    26   1
    29    16    27   1
@<TRIPOS>SUBSTRUCTURE
     1  PRL      1

