@<TRIPOS>MOLECULE
1bcu_ligand_001
    27    29
SMALL
GAST_HUCK
****
This file was generated by PARSER (from files_GN.cpp)

@<TRIPOS>ATOM
      1 C1         10.8248   22.5378   46.9177 C.ar        1 PRL      -0.0483
      2 C2         11.0744   23.7108   46.1826 C.ar        1 PRL      -0.0317
      3 C3         10.2792   24.8571   46.3793 C.ar        1 PRL       0.0415
      4 C4          9.2391   24.8329   47.3288 C.ar        1 PRL      -0.0313
      5 C5          6.6806   22.6179   50.7110 C.ar        1 PRL      -0.0313
      6 C6          6.3928   21.4974   51.5145 C.ar        1 PRL       0.0415
      7 C7          7.1188   20.3029   51.3352 C.ar        1 PRL      -0.0317
      8 C8          8.1433   20.2321   50.3720 C.ar        1 PRL      -0.0483
      9 C9          9.4939   21.3464   48.6253 C.ar        1 PRL      -0.0279
     10 N10         8.0052   23.6507   49.0057 N.ar        1 PRL      -0.3286
     11 C11         8.9984   23.6653   48.0802 C.ar        1 PRL       0.0162
     12 C12         8.4558   21.3604   49.5799 C.ar        1 PRL       0.0016
     13 C13         9.7836   22.5017   47.8691 C.ar        1 PRL       0.0016
     14 C14         7.7126   22.5574   49.7538 C.ar        1 PRL       0.0162
     15 N15        10.5202   25.9734   45.6673 N.pl3       1 PRL      -0.3324
     16 N16         5.4345   21.5798   52.4550 N.pl3       1 PRL      -0.3324
     17 H1         11.4132   21.7127   46.7561 H           1 PRL       0.0666
     18 H2         11.8367   23.7244   45.5049 H           1 PRL       0.0587
     19 H3          8.6610   25.6653   47.4797 H           1 PRL       0.0438
     20 H4          6.1471   23.4849   50.8305 H           1 PRL       0.0438
     21 H5          6.9142   19.4846   51.9123 H           1 PRL       0.0587
     22 H6          8.6645   19.3585   50.2597 H           1 PRL       0.0666
     23 H7         10.0436   20.4930   48.4830 H           1 PRL       0.0848
     24 H8         11.2438   25.9891   45.0243 H           1 PRL       0.1756
     25 H9          9.9807   26.7678   45.8039 H           1 PRL       0.1756
     26 H10         4.9570   22.4139   52.5841 H           1 PRL       0.1756
     27 H11         5.2343   20.8121   53.0139 H           1 PRL       0.1756
@<TRIPOS>BOND
     1     1    13  ar
     2     1     2  ar
     3     2     3  ar
     4     3    15   1
     5     3     4  ar
     6     4    11  ar
     7    11    10  ar
     8    11    13  ar
     9    13     9  ar
    10     9    12  ar
    11    12     8  ar
    12    12    14  ar
    13    14     5  ar
    14    14    10  ar
    15     5     6  ar
    16     6    16   1
    17     6     7  ar
    18     7     8  ar
    19     1    17   1
    20     2    18   1
    21     4    19   1
    22     5    20   1
    23     7    21   1
    24     8    22   1
    25     9    23   1
    26    15    24   1
    27    15    25   1
    28    16    26   1
    29    16    27   1
@<TRIPOS>SUBSTRUCTURE
     1  PRL      1

