@<TRIPOS>MOLECULE
1bcu_ligand_057
    27    29
SMALL
GAST_HUCK
****
This file was generated by PARSER (from files_GN.cpp)

@<TRIPOS>ATOM
      1 C1          2.7558   19.9994   51.2343 C.ar        1 PRL      -0.0483
      2 C2          1.7903   18.9984   51.0163 C.ar        1 PRL      -0.0317
      3 C3          2.1829   17.6631   50.7966 C.ar        1 PRL       0.0415
      4 C4          3.5511   17.3280   50.7924 C.ar        1 PRL      -0.0313
      5 C5          8.1780   18.5084   51.1626 C.ar        1 PRL      -0.0313
      6 C6          9.2029   19.4531   51.3685 C.ar        1 PRL       0.0415
      7 C7          8.8763   20.8018   51.6093 C.ar        1 PRL      -0.0317
      8 C8          7.5309   21.2128   51.6349 C.ar        1 PRL      -0.0483
      9 C9          5.1326   20.6425   51.4431 C.ar        1 PRL      -0.0279
     10 N10         5.8413   18.0021   50.9997 N.ar        1 PRL      -0.3286
     11 C11         4.5232   18.3246   51.0091 C.ar        1 PRL       0.0162
     12 C12         6.4959   20.2746   51.4286 C.ar        1 PRL       0.0016
     13 C13         4.1295   19.6715   51.2323 C.ar        1 PRL       0.0016
     14 C14         6.8283   18.9128   51.1951 C.ar        1 PRL       0.0162
     15 N15         1.2539   16.7133   50.5852 N.pl3       1 PRL      -0.3324
     16 N16        10.4919   19.0699   51.3296 N.pl3       1 PRL      -0.3324
     17 H1          2.4502   20.9625   51.3945 H           1 PRL       0.0666
     18 H2          0.8003   19.2505   51.0164 H           1 PRL       0.0587
     19 H3          3.8415   16.3586   50.6354 H           1 PRL       0.0438
     20 H4          8.4103   17.5264   50.9917 H           1 PRL       0.0438
     21 H5          9.6166   21.4930   51.7611 H           1 PRL       0.0587
     22 H6          7.3128   22.1974   51.8086 H           1 PRL       0.0666
     23 H7          4.8700   21.6198   51.6038 H           1 PRL       0.0848
     24 H8          0.3119   16.9500   50.5724 H           1 PRL       0.1756
     25 H9          1.5231   15.7927   50.4430 H           1 PRL       0.1756
     26 H10        10.7208   18.1427   51.1613 H           1 PRL       0.1756
     27 H11        11.1959   19.7217   51.4656 H           1 PRL       0.1756
@<TRIPOS>BOND
     1     1    13  ar
     2     1     2  ar
     3     2     3  ar
     4     3    15   1
     5     3     4  ar
     6     4    11  ar
     7    11    10  ar
     8    11    13  ar
     9    13     9  ar
    10     9    12  ar
    11    12     8  ar
    12    12    14  ar
    13    14     5  ar
    14    14    10  ar
    15     5     6  ar
    16     6    16   1
    17     6     7  ar
    18     7     8  ar
    19     1    17   1
    20     2    18   1
    21     4    19   1
    22     5    20   1
    23     7    21   1
    24     8    22   1
    25     9    23   1
    26    15    24   1
    27    15    25   1
    28    16    26   1
    29    16    27   1
@<TRIPOS>SUBSTRUCTURE
     1  PRL      1

