@<TRIPOS>MOLECULE
1bcu_ligand_058
    27    29
SMALL
GAST_HUCK
****
This file was generated by PARSER (from files_GN.cpp)

@<TRIPOS>ATOM
      1 C1         11.6981   14.8460   55.8553 C.ar        1 PRL      -0.0483
      2 C2         12.8624   15.5228   56.2617 C.ar        1 PRL      -0.0317
      3 C3         13.7339   16.0758   55.3022 C.ar        1 PRL       0.0415
      4 C4         13.4247   15.9704   53.9321 C.ar        1 PRL      -0.0313
      5 C5         10.6374   14.4355   50.3462 C.ar        1 PRL      -0.0313
      6 C6          9.4848   13.7801   49.8679 C.ar        1 PRL       0.0415
      7 C7          8.5778   13.2022   50.7783 C.ar        1 PRL      -0.0317
      8 C8          8.8184   13.2736   52.1617 C.ar        1 PRL      -0.0483
      9 C9         10.2409   14.0376   54.0312 C.ar        1 PRL      -0.0279
     10 N10        11.9807   15.1649   52.1952 N.ar        1 PRL      -0.3286
     11 C11        12.2661   15.2859   53.5174 C.ar        1 PRL       0.0162
     12 C12         9.9673   13.9337   52.6511 C.ar        1 PRL       0.0016
     13 C13        11.3922   14.7170   54.4828 C.ar        1 PRL       0.0016
     14 C14        10.8795   14.5193   51.7315 C.ar        1 PRL       0.0162
     15 N15        14.8631   16.6904   55.6937 N.pl3       1 PRL      -0.3324
     16 N16         9.2474   13.7069   48.5465 N.pl3       1 PRL      -0.3324
     17 H1         11.0805   14.4470   56.5665 H           1 PRL       0.0666
     18 H2         13.0745   15.6031   57.2594 H           1 PRL       0.0587
     19 H3         14.0480   16.3854   53.2355 H           1 PRL       0.0438
     20 H4         11.2959   14.8588   49.6870 H           1 PRL       0.0438
     21 H5          7.7370   12.7269   50.4395 H           1 PRL       0.0587
     22 H6          8.1482   12.8469   52.8069 H           1 PRL       0.0666
     23 H7          9.5993   13.6181   54.7104 H           1 PRL       0.0848
     24 H8         15.0732   16.7607   56.6382 H           1 PRL       0.1756
     25 H9         15.4692   17.0671   55.0364 H           1 PRL       0.1756
     26 H10         9.8722   14.0978   47.9169 H           1 PRL       0.1756
     27 H11         8.4488   13.2644   48.2195 H           1 PRL       0.1756
@<TRIPOS>BOND
     1     1    13  ar
     2     1     2  ar
     3     2     3  ar
     4     3    15   1
     5     3     4  ar
     6     4    11  ar
     7    11    10  ar
     8    11    13  ar
     9    13     9  ar
    10     9    12  ar
    11    12     8  ar
    12    12    14  ar
    13    14     5  ar
    14    14    10  ar
    15     5     6  ar
    16     6    16   1
    17     6     7  ar
    18     7     8  ar
    19     1    17   1
    20     2    18   1
    21     4    19   1
    22     5    20   1
    23     7    21   1
    24     8    22   1
    25     9    23   1
    26    15    24   1
    27    15    25   1
    28    16    26   1
    29    16    27   1
@<TRIPOS>SUBSTRUCTURE
     1  PRL      1

