@<TRIPOS>MOLECULE
1bcu_ligand_003
    27    29
SMALL
GAST_HUCK
****
This file was generated by PARSER (from files_GN.cpp)

@<TRIPOS>ATOM
      1 C1          7.4758   19.7020   50.2177 C.ar        1 PRL      -0.0483
      2 C2          6.4354   19.9655   51.1277 C.ar        1 PRL      -0.0317
      3 C3          6.0322   21.2919   51.3796 C.ar        1 PRL       0.0415
      4 C4          6.6584   22.3577   50.7039 C.ar        1 PRL      -0.0313
      5 C5          9.9274   24.0657   47.6483 C.ar        1 PRL      -0.0313
      6 C6         10.9719   23.8754   46.7215 C.ar        1 PRL       0.0415
      7 C7         11.4229   22.5723   46.4319 C.ar        1 PRL      -0.0317
      8 C8         10.8522   21.4604   47.0746 C.ar        1 PRL      -0.0483
      9 C9          9.1836   20.5478   48.6461 C.ar        1 PRL      -0.0279
     10 N10         8.3214   23.1308   49.1628 N.ar        1 PRL      -0.3286
     11 C11         7.7057   22.1008   49.7987 C.ar        1 PRL       0.0162
     12 C12         9.8056   21.6399   48.0034 C.ar        1 PRL       0.0016
     13 C13         8.1249   20.7652   49.5533 C.ar        1 PRL       0.0016
     14 C14         9.3412   22.9533   48.2853 C.ar        1 PRL       0.0162
     15 N15         5.0576   21.5437   52.2700 N.pl3       1 PRL      -0.3324
     16 N16        11.5554   24.9234   46.1147 N.pl3       1 PRL      -0.3324
     17 H1          7.7584   18.7331   50.0502 H           1 PRL       0.0666
     18 H2          5.9786   19.1875   51.6098 H           1 PRL       0.0587
     19 H3          6.3551   23.3213   50.8728 H           1 PRL       0.0438
     20 H4          9.5965   25.0109   47.8611 H           1 PRL       0.0438
     21 H5         12.1581   22.4242   45.7386 H           1 PRL       0.0587
     22 H6         11.1915   20.5234   46.8428 H           1 PRL       0.0666
     23 H7          9.4957   19.5930   48.4465 H           1 PRL       0.0848
     24 H8          4.6203   20.8132   52.7344 H           1 PRL       0.1756
     25 H9          4.7999   22.4593   52.4556 H           1 PRL       0.1756
     26 H10        11.2565   25.8284   46.2952 H           1 PRL       0.1756
     27 H11        12.3212   24.7668   45.5392 H           1 PRL       0.1756
@<TRIPOS>BOND
     1     1    13  ar
     2     1     2  ar
     3     2     3  ar
     4     3    15   1
     5     3     4  ar
     6     4    11  ar
     7    11    10  ar
     8    11    13  ar
     9    13     9  ar
    10     9    12  ar
    11    12     8  ar
    12    12    14  ar
    13    14     5  ar
    14    14    10  ar
    15     5     6  ar
    16     6    16   1
    17     6     7  ar
    18     7     8  ar
    19     1    17   1
    20     2    18   1
    21     4    19   1
    22     5    20   1
    23     7    21   1
    24     8    22   1
    25     9    23   1
    26    15    24   1
    27    15    25   1
    28    16    26   1
    29    16    27   1
@<TRIPOS>SUBSTRUCTURE
     1  PRL      1

