@<TRIPOS>MOLECULE
1bcu_ligand_067
    27    29
SMALL
GAST_HUCK
****
This file was generated by PARSER (from files_GN.cpp)

@<TRIPOS>ATOM
      1 C1         -1.5864   10.2568   41.2740 C.ar        1 PRL      -0.0483
      2 C2         -2.5215    9.6172   42.1090 C.ar        1 PRL      -0.0317
      3 C3         -2.6073    9.9600   43.4737 C.ar        1 PRL       0.0415
      4 C4         -1.7529   10.9482   44.0029 C.ar        1 PRL      -0.0313
      5 C5          1.7305   14.2026   43.5239 C.ar        1 PRL      -0.0313
      6 C6          2.6896   14.8861   42.7504 C.ar        1 PRL       0.0415
      7 C7          2.8342   14.5841   41.3813 C.ar        1 PRL      -0.0317
      8 C8          2.0217   13.6016   40.7858 C.ar        1 PRL      -0.0483
      9 C9          0.2226   11.9185   40.9918 C.ar        1 PRL      -0.0279
     10 N10        -0.0025   12.5528   43.6790 N.ar        1 PRL      -0.3286
     11 C11        -0.8186   11.5943   43.1690 C.ar        1 PRL       0.0162
     12 C12         1.0574   12.9105   41.5511 C.ar        1 PRL       0.0016
     13 C13        -0.7276   11.2500   41.7932 C.ar        1 PRL       0.0016
     14 C14         0.9177   13.2164   42.9319 C.ar        1 PRL       0.0162
     15 N15        -3.5022    9.3484   44.2693 N.pl3       1 PRL      -0.3324
     16 N16         3.4749   15.8157   43.3196 N.pl3       1 PRL      -0.3324
     17 H1         -1.5385    9.9927   40.2861 H           1 PRL       0.0666
     18 H2         -3.1353    8.8985   41.7184 H           1 PRL       0.0587
     19 H3         -1.8108   11.1980   44.9925 H           1 PRL       0.0438
     20 H4          1.6281   14.4186   44.5193 H           1 PRL       0.0438
     21 H5          3.5309   15.0730   40.8108 H           1 PRL       0.0587
     22 H6          2.1428   13.3934   39.7928 H           1 PRL       0.0666
     23 H7          0.3080   11.6835   39.9979 H           1 PRL       0.0848
     24 H8         -4.0939    8.6701   43.9062 H           1 PRL       0.1756
     25 H9         -3.5615    9.5861   45.2082 H           1 PRL       0.1756
     26 H10         3.3866   16.0211   44.2645 H           1 PRL       0.1756
     27 H11         4.1614   16.2522   42.7930 H           1 PRL       0.1756
@<TRIPOS>BOND
     1     1    13  ar
     2     1     2  ar
     3     2     3  ar
     4     3    15   1
     5     3     4  ar
     6     4    11  ar
     7    11    10  ar
     8    11    13  ar
     9    13     9  ar
    10     9    12  ar
    11    12     8  ar
    12    12    14  ar
    13    14     5  ar
    14    14    10  ar
    15     5     6  ar
    16     6    16   1
    17     6     7  ar
    18     7     8  ar
    19     1    17   1
    20     2    18   1
    21     4    19   1
    22     5    20   1
    23     7    21   1
    24     8    22   1
    25     9    23   1
    26    15    24   1
    27    15    25   1
    28    16    26   1
    29    16    27   1
@<TRIPOS>SUBSTRUCTURE
     1  PRL      1

