@<TRIPOS>MOLECULE
1bcu_ligand_007
    27    29
SMALL
GAST_HUCK
****
This file was generated by PARSER (from files_GN.cpp)

@<TRIPOS>ATOM
      1 C1          9.5117   23.2359   48.9911 C.ar        1 PRL      -0.0483
      2 C2         10.7637   22.8170   48.4982 C.ar        1 PRL      -0.0317
      3 C3         11.0169   21.4491   48.2727 C.ar        1 PRL       0.0415
      4 C4         10.0173   20.4949   48.5541 C.ar        1 PRL      -0.0313
      5 C5          5.6378   19.3033   50.0906 C.ar        1 PRL      -0.0313
      6 C6          4.3668   19.6449   50.5973 C.ar        1 PRL       0.0415
      7 C7          4.0474   20.9964   50.8328 C.ar        1 PRL      -0.0317
      8 C8          4.9889   22.0049   50.5598 C.ar        1 PRL      -0.0483
      9 C9          7.2421   22.6563   49.7804 C.ar        1 PRL      -0.0279
     10 N10         7.8141   19.9841   49.3431 N.ar        1 PRL      -0.3286
     11 C11         8.7694   20.9056   49.0604 C.ar        1 PRL       0.0162
     12 C12         6.2643   21.6742   50.0544 C.ar        1 PRL       0.0016
     13 C13         8.5066   22.2852   49.2760 C.ar        1 PRL       0.0016
     14 C14         6.5867   20.3096   49.8227 C.ar        1 PRL       0.0162
     15 N15        12.2128   21.0548   47.8021 N.pl3       1 PRL      -0.3324
     16 N16         3.4657   18.6827   50.8604 N.pl3       1 PRL      -0.3324
     17 H1          9.3472   24.2332   49.1477 H           1 PRL       0.0666
     18 H2         11.4871   23.5149   48.3025 H           1 PRL       0.0587
     19 H3         10.1973   19.5007   48.3959 H           1 PRL       0.0438
     20 H4          5.8735   18.3221   49.9191 H           1 PRL       0.0438
     21 H5          3.1288   21.2537   51.2052 H           1 PRL       0.0587
     22 H6          4.7404   22.9807   50.7412 H           1 PRL       0.0666
     23 H7          7.0349   23.6436   49.9566 H           1 PRL       0.0848
     24 H8         12.9102   21.7069   47.6346 H           1 PRL       0.1756
     25 H9         12.3887   20.1136   47.6550 H           1 PRL       0.1756
     26 H10         3.6873   17.7514   50.7019 H           1 PRL       0.1756
     27 H11         2.5920   18.9163   51.2143 H           1 PRL       0.1756
@<TRIPOS>BOND
     1     1    13  ar
     2     1     2  ar
     3     2     3  ar
     4     3    15   1
     5     3     4  ar
     6     4    11  ar
     7    11    10  ar
     8    11    13  ar
     9    13     9  ar
    10     9    12  ar
    11    12     8  ar
    12    12    14  ar
    13    14     5  ar
    14    14    10  ar
    15     5     6  ar
    16     6    16   1
    17     6     7  ar
    18     7     8  ar
    19     1    17   1
    20     2    18   1
    21     4    19   1
    22     5    20   1
    23     7    21   1
    24     8    22   1
    25     9    23   1
    26    15    24   1
    27    15    25   1
    28    16    26   1
    29    16    27   1
@<TRIPOS>SUBSTRUCTURE
     1  PRL      1

