@<TRIPOS>MOLECULE
1bcu_ligand_013
    27    29
SMALL
GAST_HUCK
****
This file was generated by PARSER (from files_GN.cpp)

@<TRIPOS>ATOM
      1 C1          3.6521   19.5583   46.7073 C.ar        1 PRL      -0.0483
      2 C2          2.6473   20.4427   46.2718 C.ar        1 PRL      -0.0317
      3 C3          1.9321   20.1795   45.0876 C.ar        1 PRL       0.0415
      4 C4          2.2071   19.0136   44.3472 C.ar        1 PRL      -0.0313
      5 C5          4.6505   14.9430   43.6518 C.ar        1 PRL      -0.0313
      6 C6          5.6400   14.0125   44.0287 C.ar        1 PRL       0.0415
      7 C7          6.4051   14.2345   45.1905 C.ar        1 PRL      -0.0317
      8 C8          6.1869   15.3807   45.9756 C.ar        1 PRL      -0.0483
      9 C9          4.9374   17.4769   46.3694 C.ar        1 PRL      -0.0279
     10 N10         3.4730   16.9917   44.0697 N.ar        1 PRL      -0.3286
     11 C11         3.2079   18.1189   44.7806 C.ar        1 PRL       0.0162
     12 C12         5.1947   16.3175   45.6080 C.ar        1 PRL       0.0016
     13 C13         3.9416   18.3920   45.9670 C.ar        1 PRL       0.0016
     14 C14         4.4242   16.0921   44.4349 C.ar        1 PRL       0.0162
     15 N15         0.9947   21.0440   44.6644 N.pl3       1 PRL      -0.3324
     16 N16         5.8522   12.9152   43.2815 N.pl3       1 PRL      -0.3324
     17 H1          4.1685   19.7762   47.5629 H           1 PRL       0.0666
     18 H2          2.4456   21.2834   46.8180 H           1 PRL       0.0587
     19 H3          1.6768   18.8160   43.4941 H           1 PRL       0.0438
     20 H4          4.0959   14.7856   42.8053 H           1 PRL       0.0438
     21 H5          7.1218   13.5602   45.4734 H           1 PRL       0.0587
     22 H6          6.7527   15.5240   46.8161 H           1 PRL       0.0666
     23 H7          5.4754   17.6540   47.2227 H           1 PRL       0.0848
     24 H8          0.8178   21.8522   45.1699 H           1 PRL       0.1756
     25 H9          0.4971   20.8648   43.8503 H           1 PRL       0.1756
     26 H10         5.3285   12.7636   42.4792 H           1 PRL       0.1756
     27 H11         6.5274   12.2703   43.5453 H           1 PRL       0.1756
@<TRIPOS>BOND
     1     1    13  ar
     2     1     2  ar
     3     2     3  ar
     4     3    15   1
     5     3     4  ar
     6     4    11  ar
     7    11    10  ar
     8    11    13  ar
     9    13     9  ar
    10     9    12  ar
    11    12     8  ar
    12    12    14  ar
    13    14     5  ar
    14    14    10  ar
    15     5     6  ar
    16     6    16   1
    17     6     7  ar
    18     7     8  ar
    19     1    17   1
    20     2    18   1
    21     4    19   1
    22     5    20   1
    23     7    21   1
    24     8    22   1
    25     9    23   1
    26    15    24   1
    27    15    25   1
    28    16    26   1
    29    16    27   1
@<TRIPOS>SUBSTRUCTURE
     1  PRL      1

