@<TRIPOS>MOLECULE
1bcu_ligand_086
    27    29
SMALL
GAST_HUCK
****
This file was generated by PARSER (from files_GN.cpp)

@<TRIPOS>ATOM
      1 C1         12.6887   13.3333   58.5994 C.ar        1 PRL      -0.0483
      2 C2         11.7186   14.1860   59.1578 C.ar        1 PRL      -0.0317
      3 C3         10.8103   14.8715   58.3262 C.ar        1 PRL       0.0415
      4 C4         10.8624   14.6892   56.9295 C.ar        1 PRL      -0.0313
      5 C5         12.8222   12.7525   53.0076 C.ar        1 PRL      -0.0313
      6 C6         13.7596   11.9062   52.3814 C.ar        1 PRL       0.0415
      7 C7         14.6942   11.1959   53.1614 C.ar        1 PRL      -0.0317
      8 C8         14.7000   11.3309   54.5618 C.ar        1 PRL      -0.0483
      9 C9         13.7246   12.3242   56.5995 C.ar        1 PRL      -0.0279
     10 N10        11.8983   13.6787   55.0176 N.ar        1 PRL      -0.3286
     11 C11        11.8351   13.8417   56.3644 C.ar        1 PRL       0.0162
     12 C12        13.7604   12.1703   55.1976 C.ar        1 PRL       0.0016
     13 C13        12.7596   13.1594   57.2007 C.ar        1 PRL       0.0016
     14 C14        12.8139   12.8803   54.4104 C.ar        1 PRL       0.0162
     15 N15         9.9029   15.7033   58.8672 N.pl3       1 PRL      -0.3324
     16 N16        13.7587   11.7683   51.0440 N.pl3       1 PRL      -0.3324
     17 H1         13.3425   12.8456   59.2175 H           1 PRL       0.0666
     18 H2         11.6806   14.3070   60.1728 H           1 PRL       0.0587
     19 H3         10.1984   15.1773   56.3223 H           1 PRL       0.0438
     20 H4         12.1406   13.2696   52.4449 H           1 PRL       0.0438
     21 H5         15.3737   10.5756   52.7140 H           1 PRL       0.0587
     22 H6         15.3865   10.8095   55.1130 H           1 PRL       0.0666
     23 H7         14.4019   11.8259   57.1842 H           1 PRL       0.0848
     24 H8          9.8824   15.8409   59.8276 H           1 PRL       0.1756
     25 H9          9.2864   16.1917   58.2990 H           1 PRL       0.1756
     26 H10        13.1181   12.2565   50.5035 H           1 PRL       0.1756
     27 H11        14.3984   11.1779   50.6151 H           1 PRL       0.1756
@<TRIPOS>BOND
     1     1    13  ar
     2     1     2  ar
     3     2     3  ar
     4     3    15   1
     5     3     4  ar
     6     4    11  ar
     7    11    10  ar
     8    11    13  ar
     9    13     9  ar
    10     9    12  ar
    11    12     8  ar
    12    12    14  ar
    13    14     5  ar
    14    14    10  ar
    15     5     6  ar
    16     6    16   1
    17     6     7  ar
    18     7     8  ar
    19     1    17   1
    20     2    18   1
    21     4    19   1
    22     5    20   1
    23     7    21   1
    24     8    22   1
    25     9    23   1
    26    15    24   1
    27    15    25   1
    28    16    26   1
    29    16    27   1
@<TRIPOS>SUBSTRUCTURE
     1  PRL      1

