@<TRIPOS>MOLECULE
1bcu_ligand_094
    27    29
SMALL
GAST_HUCK
****
This file was generated by PARSER (from files_GN.cpp)

@<TRIPOS>ATOM
      1 C1          8.9517   12.5140   57.8036 C.ar        1 PRL      -0.0483
      2 C2          7.5723   12.7640   57.6797 C.ar        1 PRL      -0.0317
      3 C3          7.1145   13.8979   56.9783 C.ar        1 PRL       0.0415
      4 C4          8.0422   14.7767   56.3828 C.ar        1 PRL      -0.0313
      5 C5         12.5388   16.1392   55.4345 C.ar        1 PRL      -0.0313
      6 C6         13.9332   15.9447   55.5092 C.ar        1 PRL       0.0415
      7 C7         14.4490   14.8290   56.1991 C.ar        1 PRL      -0.0317
      8 C8         13.5808   13.9113   56.8181 C.ar        1 PRL      -0.0483
      9 C9         11.2783   13.1917   57.3383 C.ar        1 PRL      -0.0279
     10 N10        10.3199   15.3897   55.9508 N.ar        1 PRL      -0.3286
     11 C11         9.4244   14.5342   56.5087 C.ar        1 PRL       0.0162
     12 C12        12.1835   14.0943   56.7421 C.ar        1 PRL       0.0016
     13 C13         9.8877   13.3984   57.2266 C.ar        1 PRL       0.0016
     14 C14        11.6639   15.2155   56.0398 C.ar        1 PRL       0.0162
     15 N15         5.7957   14.1431   56.8890 N.pl3       1 PRL      -0.3324
     16 N16        14.7705   16.8159   54.9189 N.pl3       1 PRL      -0.3324
     17 H1          9.2670   11.6880   58.3189 H           1 PRL       0.0666
     18 H2          6.9041   12.1179   58.1063 H           1 PRL       0.0587
     19 H3          7.7144   15.5965   55.8641 H           1 PRL       0.0438
     20 H4         12.1585   16.9475   54.9334 H           1 PRL       0.0438
     21 H5         15.4597   14.6786   56.2523 H           1 PRL       0.0587
     22 H6         13.9719   13.1081   57.3166 H           1 PRL       0.0666
     23 H7         11.6327   12.3810   57.8538 H           1 PRL       0.0848
     24 H8          5.1609   13.5454   57.3141 H           1 PRL       0.1756
     25 H9          5.4764   14.9277   56.4164 H           1 PRL       0.1756
     26 H10        14.4185   17.5843   54.4431 H           1 PRL       0.1756
     27 H11        15.7291   16.6737   54.9615 H           1 PRL       0.1756
@<TRIPOS>BOND
     1     1    13  ar
     2     1     2  ar
     3     2     3  ar
     4     3    15   1
     5     3     4  ar
     6     4    11  ar
     7    11    10  ar
     8    11    13  ar
     9    13     9  ar
    10     9    12  ar
    11    12     8  ar
    12    12    14  ar
    13    14     5  ar
    14    14    10  ar
    15     5     6  ar
    16     6    16   1
    17     6     7  ar
    18     7     8  ar
    19     1    17   1
    20     2    18   1
    21     4    19   1
    22     5    20   1
    23     7    21   1
    24     8    22   1
    25     9    23   1
    26    15    24   1
    27    15    25   1
    28    16    26   1
    29    16    27   1
@<TRIPOS>SUBSTRUCTURE
     1  PRL      1

