@<TRIPOS>MOLECULE
1bcu_ligand_029
    27    29
SMALL
GAST_HUCK
****
This file was generated by PARSER (from files_GN.cpp)

@<TRIPOS>ATOM
      1 C1         11.5306   19.6488   59.2918 C.ar        1 PRL      -0.0483
      2 C2         12.1134   20.7029   58.5640 C.ar        1 PRL      -0.0317
      3 C3         12.7391   21.7720   59.2368 C.ar        1 PRL       0.0415
      4 C4         12.7967   21.7773   60.6453 C.ar        1 PRL      -0.0313
      5 C5         11.7774   19.8341   64.9068 C.ar        1 PRL      -0.0313
      6 C6         11.2248   18.8068   65.6986 C.ar        1 PRL       0.0415
      7 C7         10.5852   17.7130   65.0811 C.ar        1 PRL      -0.0317
      8 C8         10.4904   17.6431   63.6790 C.ar        1 PRL      -0.0483
      9 C9         10.9844   18.6256   61.4699 C.ar        1 PRL      -0.0279
     10 N10        12.2488   20.7401   62.7369 N.ar        1 PRL      -0.3286
     11 C11        12.2098   20.7276   61.3792 C.ar        1 PRL       0.0162
     12 C12        11.0471   18.6634   62.8787 C.ar        1 PRL       0.0016
     13 C13        11.5675   19.6554   60.7025 C.ar        1 PRL       0.0016
     14 C14        11.6985   19.7622   63.5020 C.ar        1 PRL       0.0162
     15 N15        13.2690   22.7880   58.5335 N.pl3       1 PRL      -0.3324
     16 N16        11.3125   18.8644   67.0395 N.pl3       1 PRL      -0.3324
     17 H1         11.0776   18.8821   58.7877 H           1 PRL       0.0666
     18 H2         12.0763   20.6887   57.5422 H           1 PRL       0.0587
     19 H3         13.2586   22.5469   61.1384 H           1 PRL       0.0438
     20 H4         12.2443   20.6304   65.3503 H           1 PRL       0.0438
     21 H5         10.1871   16.9611   65.6494 H           1 PRL       0.0587
     22 H6         10.0210   16.8433   63.2471 H           1 PRL       0.0666
     23 H7         10.5143   17.8457   61.0018 H           1 PRL       0.0848
     24 H8         13.2127   22.7891   57.5652 H           1 PRL       0.1756
     25 H9         13.6911   23.5309   58.9924 H           1 PRL       0.1756
     26 H10        11.7523   19.6156   67.4673 H           1 PRL       0.1756
     27 H11        10.9418   18.1507   67.5818 H           1 PRL       0.1756
@<TRIPOS>BOND
     1     1    13  ar
     2     1     2  ar
     3     2     3  ar
     4     3    15   1
     5     3     4  ar
     6     4    11  ar
     7    11    10  ar
     8    11    13  ar
     9    13     9  ar
    10     9    12  ar
    11    12     8  ar
    12    12    14  ar
    13    14     5  ar
    14    14    10  ar
    15     5     6  ar
    16     6    16   1
    17     6     7  ar
    18     7     8  ar
    19     1    17   1
    20     2    18   1
    21     4    19   1
    22     5    20   1
    23     7    21   1
    24     8    22   1
    25     9    23   1
    26    15    24   1
    27    15    25   1
    28    16    26   1
    29    16    27   1
@<TRIPOS>SUBSTRUCTURE
     1  PRL      1

