@<TRIPOS>MOLECULE
1bcu_ligand_040
    27    29
SMALL
GAST_HUCK
****
This file was generated by PARSER (from files_GN.cpp)

@<TRIPOS>ATOM
      1 C1          1.1009   19.9298   47.2571 C.ar        1 PRL      -0.0483
      2 C2          1.3370   20.4336   45.9631 C.ar        1 PRL      -0.0317
      3 C3          1.8459   19.5907   44.9543 C.ar        1 PRL       0.0415
      4 C4          2.1323   18.2410   45.2456 C.ar        1 PRL      -0.0313
      5 C5          2.2621   14.5237   48.2710 C.ar        1 PRL      -0.0313
      6 C6          2.0466   13.9508   49.5406 C.ar        1 PRL       0.0415
      7 C7          1.5208   14.7382   50.5854 C.ar        1 PRL      -0.0317
      8 C8          1.2107   16.0935   50.3672 C.ar        1 PRL      -0.0483
      9 C9          1.1420   18.0337   48.8351 C.ar        1 PRL      -0.0279
     10 N10         2.1660   16.4321   46.8229 N.ar        1 PRL      -0.3286
     11 C11         1.8978   17.7324   46.5399 C.ar        1 PRL       0.0162
     12 C12         1.4284   16.6762   49.0993 C.ar        1 PRL       0.0016
     13 C13         1.3744   18.5778   47.5549 C.ar        1 PRL       0.0016
     14 C14         1.9564   15.8802   48.0462 C.ar        1 PRL       0.0162
     15 N15         2.0482   20.0743   43.7155 N.pl3       1 PRL      -0.3324
     16 N16         2.3438   12.6570   49.7543 N.pl3       1 PRL      -0.3324
     17 H1          0.7293   20.5497   47.9788 H           1 PRL       0.0666
     18 H2          1.1359   21.4156   45.7604 H           1 PRL       0.0587
     19 H3          2.5030   17.6275   44.5161 H           1 PRL       0.0438
     20 H4          2.6434   13.9545   47.5099 H           1 PRL       0.0438
     21 H5          1.3635   14.3296   51.5107 H           1 PRL       0.0587
     22 H6          0.8275   16.6485   51.1384 H           1 PRL       0.0666
     23 H7          0.7636   18.6266   49.5799 H           1 PRL       0.0848
     24 H8          1.8224   20.9961   43.5121 H           1 PRL       0.1756
     25 H9          2.4059   19.5021   43.0175 H           1 PRL       0.1756
     26 H10         2.7078   12.1166   49.0355 H           1 PRL       0.1756
     27 H11         2.1990   12.2634   50.6288 H           1 PRL       0.1756
@<TRIPOS>BOND
     1     1    13  ar
     2     1     2  ar
     3     2     3  ar
     4     3    15   1
     5     3     4  ar
     6     4    11  ar
     7    11    10  ar
     8    11    13  ar
     9    13     9  ar
    10     9    12  ar
    11    12     8  ar
    12    12    14  ar
    13    14     5  ar
    14    14    10  ar
    15     5     6  ar
    16     6    16   1
    17     6     7  ar
    18     7     8  ar
    19     1    17   1
    20     2    18   1
    21     4    19   1
    22     5    20   1
    23     7    21   1
    24     8    22   1
    25     9    23   1
    26    15    24   1
    27    15    25   1
    28    16    26   1
    29    16    27   1
@<TRIPOS>SUBSTRUCTURE
     1  PRL      1

