@<TRIPOS>MOLECULE
1bcu_ligand_049
    27    29
SMALL
GAST_HUCK
****
This file was generated by PARSER (from files_GN.cpp)

@<TRIPOS>ATOM
      1 C1         12.9362   13.1837   55.0790 C.ar        1 PRL      -0.0483
      2 C2         12.3822   14.4764   55.0419 C.ar        1 PRL      -0.0317
      3 C3         13.1756   15.6000   55.3467 C.ar        1 PRL       0.0415
      4 C4         14.5363   15.4308   55.6740 C.ar        1 PRL      -0.0313
      5 C5         18.3606   12.6516   56.4639 C.ar        1 PRL      -0.0313
      6 C6         18.9844   11.3885   56.5099 C.ar        1 PRL       0.0415
      7 C7         18.2409   10.2276   56.2163 C.ar        1 PRL      -0.0317
      8 C8         16.8764   10.3234   55.8823 C.ar        1 PRL      -0.0483
      9 C9         14.8846   11.7240   55.4849 C.ar        1 PRL      -0.0279
     10 N10        16.4014   13.9719   56.0511 N.ar        1 PRL      -0.3286
     11 C11        15.0951   14.1389   55.7195 C.ar        1 PRL       0.0162
     12 C12        16.2470   11.5843   55.8271 C.ar        1 PRL       0.0016
     13 C13        14.2932   13.0039   55.4234 C.ar        1 PRL       0.0016
     14 C14        16.9992   12.7543   56.1161 C.ar        1 PRL       0.0162
     15 N15        12.6304   16.8293   55.3313 N.pl3       1 PRL      -0.3324
     16 N16        20.2877   11.2883   56.8261 N.pl3       1 PRL      -0.3324
     17 H1         12.3450   12.3781   54.8580 H           1 PRL       0.0666
     18 H2         11.3958   14.5932   54.7951 H           1 PRL       0.0587
     19 H3         15.1191   16.2458   55.8871 H           1 PRL       0.0438
     20 H4         18.8973   13.4977   56.6754 H           1 PRL       0.0438
     21 H5         18.6878    9.3083   56.2421 H           1 PRL       0.0587
     22 H6         16.3510    9.4702   55.6741 H           1 PRL       0.0666
     23 H7         14.3232   10.8930   55.2790 H           1 PRL       0.0848
     24 H8         11.6893   16.9411   55.1283 H           1 PRL       0.1756
     25 H9         13.1691   17.6036   55.5553 H           1 PRL       0.1756
     26 H10        20.8031   12.0851   57.0286 H           1 PRL       0.1756
     27 H11        20.7181   10.4189   56.8460 H           1 PRL       0.1756
@<TRIPOS>BOND
     1     1    13  ar
     2     1     2  ar
     3     2     3  ar
     4     3    15   1
     5     3     4  ar
     6     4    11  ar
     7    11    10  ar
     8    11    13  ar
     9    13     9  ar
    10     9    12  ar
    11    12     8  ar
    12    12    14  ar
    13    14     5  ar
    14    14    10  ar
    15     5     6  ar
    16     6    16   1
    17     6     7  ar
    18     7     8  ar
    19     1    17   1
    20     2    18   1
    21     4    19   1
    22     5    20   1
    23     7    21   1
    24     8    22   1
    25     9    23   1
    26    15    24   1
    27    15    25   1
    28    16    26   1
    29    16    27   1
@<TRIPOS>SUBSTRUCTURE
     1  PRL      1

