@<TRIPOS>MOLECULE
1bcu_ligand_074
    27    29
SMALL
GAST_HUCK
****
This file was generated by PARSER (from files_GN.cpp)

@<TRIPOS>ATOM
      1 C1         -0.0095   14.2021   48.1614 C.ar        1 PRL      -0.0483
      2 C2         -1.1258   13.9781   48.9879 C.ar        1 PRL      -0.0317
      3 C3         -2.1588   14.9334   49.0634 C.ar        1 PRL       0.0415
      4 C4         -2.0825   16.1122   48.2941 C.ar        1 PRL      -0.0313
      5 C5          0.1932   18.9773   45.1981 C.ar        1 PRL      -0.0313
      6 C6          1.2756   19.2622   44.3411 C.ar        1 PRL       0.0415
      7 C7          2.3395   18.3449   44.2260 C.ar        1 PRL      -0.0317
      8 C8          2.3287   17.1475   44.9660 C.ar        1 PRL      -0.0483
      9 C9          1.1914   15.6573   46.5704 C.ar        1 PRL      -0.0279
     10 N10        -0.8808   17.4877   46.7409 N.ar        1 PRL      -0.3286
     11 C11        -0.9650   16.3448   47.4692 C.ar        1 PRL       0.0162
     12 C12         1.2459   16.8517   45.8202 C.ar        1 PRL       0.0016
     13 C13         0.0834   15.3879   47.4017 C.ar        1 PRL       0.0016
     14 C14         0.1705   17.7739   45.9302 C.ar        1 PRL       0.0162
     15 N15        -3.2086   14.7227   49.8774 N.pl3       1 PRL      -0.3324
     16 N16         1.2927   20.4028   43.6289 N.pl3       1 PRL      -0.3324
     17 H1          0.7334   13.4994   48.1208 H           1 PRL       0.0666
     18 H2         -1.1792   13.1164   49.5373 H           1 PRL       0.0587
     19 H3         -2.8355   16.8049   48.3387 H           1 PRL       0.0438
     20 H4         -0.5824   19.6406   45.2843 H           1 PRL       0.0438
     21 H5          3.1254   18.5422   43.6018 H           1 PRL       0.0587
     22 H6          3.1102   16.4935   44.8719 H           1 PRL       0.0666
     23 H7          1.9588   14.9823   46.5099 H           1 PRL       0.0848
     24 H8         -3.2498   13.9181   50.4179 H           1 PRL       0.1756
     25 H9         -3.9170   15.3824   49.9406 H           1 PRL       0.1756
     26 H10         0.5620   21.0371   43.7053 H           1 PRL       0.1756
     27 H11         2.0315   20.5907   43.0318 H           1 PRL       0.1756
@<TRIPOS>BOND
     1     1    13  ar
     2     1     2  ar
     3     2     3  ar
     4     3    15   1
     5     3     4  ar
     6     4    11  ar
     7    11    10  ar
     8    11    13  ar
     9    13     9  ar
    10     9    12  ar
    11    12     8  ar
    12    12    14  ar
    13    14     5  ar
    14    14    10  ar
    15     5     6  ar
    16     6    16   1
    17     6     7  ar
    18     7     8  ar
    19     1    17   1
    20     2    18   1
    21     4    19   1
    22     5    20   1
    23     7    21   1
    24     8    22   1
    25     9    23   1
    26    15    24   1
    27    15    25   1
    28    16    26   1
    29    16    27   1
@<TRIPOS>SUBSTRUCTURE
     1  PRL      1

