@<TRIPOS>MOLECULE
1bcu_ligand_033
    27    29
SMALL
GAST_HUCK
****
This file was generated by PARSER (from files_GN.cpp)

@<TRIPOS>ATOM
      1 C1          5.9593   18.9624   49.9416 C.ar        1 PRL      -0.0483
      2 C2          6.1346   19.7719   51.0797 C.ar        1 PRL      -0.0317
      3 C3          5.3897   20.9589   51.2308 C.ar        1 PRL       0.0415
      4 C4          4.4587   21.3333   50.2402 C.ar        1 PRL      -0.0313
      5 C5          2.2343   20.6005   46.0603 C.ar        1 PRL      -0.0313
      6 C6          2.0243   19.8559   44.8825 C.ar        1 PRL       0.0415
      7 C7          2.7437   18.6624   44.6703 C.ar        1 PRL      -0.0317
      8 C8          3.6763   18.2158   45.6246 C.ar        1 PRL      -0.0483
      9 C9          4.8307   18.5541   47.7829 C.ar        1 PRL      -0.0279
     10 N10         3.3776   20.8812   48.1492 N.ar        1 PRL      -0.3286
     11 C11         4.2744   20.5228   49.1026 C.ar        1 PRL       0.0162
     12 C12         3.8982   18.9598   46.8033 C.ar        1 PRL       0.0016
     13 C13         5.0322   19.3314   48.9429 C.ar        1 PRL       0.0016
     14 C14         3.1646   20.1568   47.0204 C.ar        1 PRL       0.0162
     15 N15         5.5737   21.7316   52.3153 N.pl3       1 PRL      -0.3324
     16 N16         1.1419   20.2832   43.9628 N.pl3       1 PRL      -0.3324
     17 H1          6.5147   18.1078   49.8471 H           1 PRL       0.0666
     18 H2          6.8123   19.4936   51.7935 H           1 PRL       0.0587
     19 H3          3.9168   22.1970   50.3463 H           1 PRL       0.0438
     20 H4          1.7156   21.4699   46.2146 H           1 PRL       0.0438
     21 H5          2.5955   18.1150   43.8188 H           1 PRL       0.0587
     22 H6          4.1933   17.3499   45.4507 H           1 PRL       0.0666
     23 H7          5.3684   17.6923   47.6476 H           1 PRL       0.0848
     24 H8          6.2122   21.4679   52.9961 H           1 PRL       0.1756
     25 H9          5.0753   22.5573   52.4183 H           1 PRL       0.1756
     26 H10         0.6557   21.1130   44.0963 H           1 PRL       0.1756
     27 H11         0.9910   19.7622   43.1599 H           1 PRL       0.1756
@<TRIPOS>BOND
     1     1    13  ar
     2     1     2  ar
     3     2     3  ar
     4     3    15   1
     5     3     4  ar
     6     4    11  ar
     7    11    10  ar
     8    11    13  ar
     9    13     9  ar
    10     9    12  ar
    11    12     8  ar
    12    12    14  ar
    13    14     5  ar
    14    14    10  ar
    15     5     6  ar
    16     6    16   1
    17     6     7  ar
    18     7     8  ar
    19     1    17   1
    20     2    18   1
    21     4    19   1
    22     5    20   1
    23     7    21   1
    24     8    22   1
    25     9    23   1
    26    15    24   1
    27    15    25   1
    28    16    26   1
    29    16    27   1
@<TRIPOS>SUBSTRUCTURE
     1  PRL      1

