@<TRIPOS>MOLECULE
1bcu_ligand_011
    27    29
SMALL
GAST_HUCK
****
This file was generated by PARSER (from files_GN.cpp)

@<TRIPOS>ATOM
      1 C1          6.4662   15.8927   47.0598 C.ar        1 PRL      -0.0483
      2 C2          7.1167   15.8098   48.3100 C.ar        1 PRL      -0.0317
      3 C3          6.8504   16.7608   49.3114 C.ar        1 PRL       0.0415
      4 C4          5.9357   17.8017   49.0659 C.ar        1 PRL      -0.0313
      5 C5          2.8300   20.1044   46.2228 C.ar        1 PRL      -0.0313
      6 C6          2.1511   20.2578   44.9958 C.ar        1 PRL       0.0415
      7 C7          2.3774   19.3425   43.9524 C.ar        1 PRL      -0.0317
      8 C8          3.2739   18.2730   44.1296 C.ar        1 PRL      -0.0483
      9 C9          4.8682   17.0507   45.5730 C.ar        1 PRL      -0.0279
     10 N10         4.3969   18.8955   47.5807 N.ar        1 PRL      -0.3286
     11 C11         5.2763   17.8915   47.8199 C.ar        1 PRL       0.0162
     12 C12         3.9597   18.1105   45.3549 C.ar        1 PRL       0.0016
     13 C13         5.5408   16.9287   46.8093 C.ar        1 PRL       0.0016
     14 C14         3.7353   19.0405   46.4045 C.ar        1 PRL       0.0162
     15 N15         7.4698   16.6780   50.5040 N.pl3       1 PRL      -0.3324
     16 N16         1.3028   21.2868   44.8199 N.pl3       1 PRL      -0.3324
     17 H1          6.6804   15.1969   46.3422 H           1 PRL       0.0666
     18 H2          7.7840   15.0526   48.4769 H           1 PRL       0.0587
     19 H3          5.7455   18.5003   49.7915 H           1 PRL       0.0438
     20 H4          2.6681   20.7744   46.9824 H           1 PRL       0.0438
     21 H5          1.9016   19.4595   43.0561 H           1 PRL       0.0587
     22 H6          3.4323   17.6179   43.3547 H           1 PRL       0.0666
     23 H7          5.0406   16.3681   44.8303 H           1 PRL       0.0848
     24 H8          8.0982   15.9597   50.6790 H           1 PRL       0.1756
     25 H9          7.2876   17.3359   51.1938 H           1 PRL       0.1756
     26 H10         1.1590   21.9286   45.5288 H           1 PRL       0.1756
     27 H11         0.8387   21.3934   43.9706 H           1 PRL       0.1756
@<TRIPOS>BOND
     1     1    13  ar
     2     1     2  ar
     3     2     3  ar
     4     3    15   1
     5     3     4  ar
     6     4    11  ar
     7    11    10  ar
     8    11    13  ar
     9    13     9  ar
    10     9    12  ar
    11    12     8  ar
    12    12    14  ar
    13    14     5  ar
    14    14    10  ar
    15     5     6  ar
    16     6    16   1
    17     6     7  ar
    18     7     8  ar
    19     1    17   1
    20     2    18   1
    21     4    19   1
    22     5    20   1
    23     7    21   1
    24     8    22   1
    25     9    23   1
    26    15    24   1
    27    15    25   1
    28    16    26   1
    29    16    27   1
@<TRIPOS>SUBSTRUCTURE
     1  PRL      1

