@<TRIPOS>MOLECULE
1bcu_ligand_046
    27    29
SMALL
GAST_HUCK
****
This file was generated by PARSER (from files_GN.cpp)

@<TRIPOS>ATOM
      1 C1         -0.1122   16.8235   47.2896 C.ar        1 PRL      -0.0483
      2 C2         -1.4408   17.1847   46.9981 C.ar        1 PRL      -0.0317
      3 C3         -1.8501   18.5300   47.0924 C.ar        1 PRL       0.0415
      4 C4         -0.9217   19.5174   47.4803 C.ar        1 PRL      -0.0313
      5 C5          3.4779   20.8713   48.8310 C.ar        1 PRL      -0.0313
      6 C6          4.8265   20.5906   49.1235 C.ar        1 PRL       0.0415
      7 C7          5.2984   19.2654   49.0379 C.ar        1 PRL      -0.0317
      8 C8          4.4282   18.2246   48.6609 C.ar        1 PRL      -0.0483
      9 C9          2.1675   17.4884   47.9757 C.ar        1 PRL      -0.0279
     10 N10         1.3044   20.1119   48.1541 N.ar        1 PRL      -0.3286
     11 C11         0.4094   19.1620   47.7766 C.ar        1 PRL       0.0162
     12 C12         3.0748   18.4997   48.3618 C.ar        1 PRL       0.0016
     13 C13         0.8242   17.8061   47.6797 C.ar        1 PRL       0.0016
     14 C14         2.6015   19.8365   48.4474 C.ar        1 PRL       0.0162
     15 N15        -3.1240   18.8678   46.8205 N.pl3       1 PRL      -0.3324
     16 N16         5.6582   21.5885   49.4755 N.pl3       1 PRL      -0.3324
     17 H1          0.1660   15.8418   47.2144 H           1 PRL       0.0666
     18 H2         -2.1083   16.4612   46.7187 H           1 PRL       0.0587
     19 H3         -1.2162   20.4955   47.5494 H           1 PRL       0.0438
     20 H4          3.1366   21.8325   48.8924 H           1 PRL       0.0438
     21 H5          6.2774   19.0520   49.2458 H           1 PRL       0.0587
     22 H6          4.7889   17.2684   48.6036 H           1 PRL       0.0666
     23 H7          2.4878   16.5182   47.9082 H           1 PRL       0.0848
     24 H8         -3.7629   18.1883   46.5508 H           1 PRL       0.1756
     25 H9         -3.4106   19.7919   46.8948 H           1 PRL       0.1756
     26 H10         5.3334   22.5047   49.5140 H           1 PRL       0.1756
     27 H11         6.5877   21.3994   49.6764 H           1 PRL       0.1756
@<TRIPOS>BOND
     1     1    13  ar
     2     1     2  ar
     3     2     3  ar
     4     3    15   1
     5     3     4  ar
     6     4    11  ar
     7    11    10  ar
     8    11    13  ar
     9    13     9  ar
    10     9    12  ar
    11    12     8  ar
    12    12    14  ar
    13    14     5  ar
    14    14    10  ar
    15     5     6  ar
    16     6    16   1
    17     6     7  ar
    18     7     8  ar
    19     1    17   1
    20     2    18   1
    21     4    19   1
    22     5    20   1
    23     7    21   1
    24     8    22   1
    25     9    23   1
    26    15    24   1
    27    15    25   1
    28    16    26   1
    29    16    27   1
@<TRIPOS>SUBSTRUCTURE
     1  PRL      1

