@<TRIPOS>MOLECULE
1bcu_ligand_059
    27    29
SMALL
GAST_HUCK
****
This file was generated by PARSER (from files_GN.cpp)

@<TRIPOS>ATOM
      1 C1          2.6428   17.9603   44.2881 C.ar        1 PRL      -0.0483
      2 C2          2.2933   19.2802   43.9481 C.ar        1 PRL      -0.0317
      3 C3          1.6098   20.0950   44.8727 C.ar        1 PRL       0.0415
      4 C4          1.2852   19.5913   46.1481 C.ar        1 PRL      -0.0313
      5 C5          1.2387   16.0622   49.3925 C.ar        1 PRL      -0.0313
      6 C6          1.5664   14.7541   49.8035 C.ar        1 PRL       0.0415
      7 C7          2.2487   13.8921   48.9224 C.ar        1 PRL      -0.0317
      8 C8          2.6016   14.3285   47.6333 C.ar        1 PRL      -0.0483
      9 C9          2.6296   16.1209   45.9347 C.ar        1 PRL      -0.0279
     10 N10         1.3024   17.7753   47.7148 N.ar        1 PRL      -0.3286
     11 C11         1.6272   18.2683   46.4918 C.ar        1 PRL       0.0162
     12 C12         2.2841   15.6395   47.2147 C.ar        1 PRL       0.0016
     13 C13         2.3088   17.4419   45.5575 C.ar        1 PRL       0.0016
     14 C14         1.6003   16.5095   48.1069 C.ar        1 PRL       0.0162
     15 N15         1.2584   21.3463   44.5311 N.pl3       1 PRL      -0.3324
     16 N16         1.2342   14.3300   51.0347 N.pl3       1 PRL      -0.3324
     17 H1          3.1382   17.3831   43.6036 H           1 PRL       0.0666
     18 H2          2.5336   19.6416   43.0227 H           1 PRL       0.0587
     19 H3          0.7948   20.1836   46.8232 H           1 PRL       0.0438
     20 H4          0.7431   16.6904   50.0307 H           1 PRL       0.0438
     21 H5          2.4935   12.9425   49.2154 H           1 PRL       0.0587
     22 H6          3.0958   13.6882   47.0066 H           1 PRL       0.0666
     23 H7          3.1179   15.5075   45.2748 H           1 PRL       0.0848
     24 H8          1.4607   21.6828   43.6443 H           1 PRL       0.1756
     25 H9          0.7791   21.9071   45.1607 H           1 PRL       0.1756
     26 H10         0.7626   14.9233   51.6393 H           1 PRL       0.1756
     27 H11         1.4680   13.4325   51.3211 H           1 PRL       0.1756
@<TRIPOS>BOND
     1     1    13  ar
     2     1     2  ar
     3     2     3  ar
     4     3    15   1
     5     3     4  ar
     6     4    11  ar
     7    11    10  ar
     8    11    13  ar
     9    13     9  ar
    10     9    12  ar
    11    12     8  ar
    12    12    14  ar
    13    14     5  ar
    14    14    10  ar
    15     5     6  ar
    16     6    16   1
    17     6     7  ar
    18     7     8  ar
    19     1    17   1
    20     2    18   1
    21     4    19   1
    22     5    20   1
    23     7    21   1
    24     8    22   1
    25     9    23   1
    26    15    24   1
    27    15    25   1
    28    16    26   1
    29    16    27   1
@<TRIPOS>SUBSTRUCTURE
     1  PRL      1

