@<TRIPOS>MOLECULE
1bcu_ligand_091
    27    29
SMALL
GAST_HUCK
****
This file was generated by PARSER (from files_GN.cpp)

@<TRIPOS>ATOM
      1 C1         12.2860   16.7615   58.6396 C.ar        1 PRL      -0.0483
      2 C2         10.8985   16.6981   58.8672 C.ar        1 PRL      -0.0317
      3 C3         10.1606   15.5706   58.4538 C.ar        1 PRL       0.0415
      4 C4         10.8188   14.4967   57.8219 C.ar        1 PRL      -0.0313
      5 C5         14.7693   12.4096   56.0840 C.ar        1 PRL      -0.0313
      6 C6         16.1560   12.3979   55.8316 C.ar        1 PRL       0.0415
      7 C7         16.9458   13.5013   56.2115 C.ar        1 PRL      -0.0317
      8 C8         16.3576   14.6121   56.8433 C.ar        1 PRL      -0.0483
      9 C9         14.3406   15.7161   57.7498 C.ar        1 PRL      -0.0279
     10 N10        12.8406   13.5217   56.9761 N.ar        1 PRL      -0.3286
     11 C11        12.2078   14.5540   57.5916 C.ar        1 PRL       0.0162
     12 C12        14.9700   14.6282   57.1091 C.ar        1 PRL       0.0016
     13 C13        12.9517   15.6938   57.9996 C.ar        1 PRL       0.0016
     14 C14        14.1750   13.5153   56.7227 C.ar        1 PRL       0.0162
     15 N15         8.8328   15.5211   58.6624 N.pl3       1 PRL      -0.3324
     16 N16        16.7244   11.3403   55.2253 N.pl3       1 PRL      -0.3324
     17 H1         12.8037   17.5899   58.9454 H           1 PRL       0.0666
     18 H2         10.4287   17.4818   59.3265 H           1 PRL       0.0587
     19 H3         10.2872   13.6737   57.5266 H           1 PRL       0.0438
     20 H4         14.1930   11.6099   55.8077 H           1 PRL       0.0438
     21 H5         17.9529   13.5023   56.0299 H           1 PRL       0.0587
     22 H6         16.9475   15.4038   57.1123 H           1 PRL       0.0666
     23 H7         14.8961   16.5279   58.0369 H           1 PRL       0.0848
     24 H8          8.3793   16.2671   59.0863 H           1 PRL       0.1756
     25 H9          8.3228   14.7466   58.3763 H           1 PRL       0.1756
     26 H10        16.1823   10.5795   54.9623 H           1 PRL       0.1756
     27 H11        17.6795   11.3329   55.0534 H           1 PRL       0.1756
@<TRIPOS>BOND
     1     1    13  ar
     2     1     2  ar
     3     2     3  ar
     4     3    15   1
     5     3     4  ar
     6     4    11  ar
     7    11    10  ar
     8    11    13  ar
     9    13     9  ar
    10     9    12  ar
    11    12     8  ar
    12    12    14  ar
    13    14     5  ar
    14    14    10  ar
    15     5     6  ar
    16     6    16   1
    17     6     7  ar
    18     7     8  ar
    19     1    17   1
    20     2    18   1
    21     4    19   1
    22     5    20   1
    23     7    21   1
    24     8    22   1
    25     9    23   1
    26    15    24   1
    27    15    25   1
    28    16    26   1
    29    16    27   1
@<TRIPOS>SUBSTRUCTURE
     1  PRL      1

