@<TRIPOS>MOLECULE
1bcu_ligand_018
    27    29
SMALL
GAST_HUCK
****
This file was generated by PARSER (from files_GN.cpp)

@<TRIPOS>ATOM
      1 C1          2.5756   20.4403   46.9137 C.ar        1 PRL      -0.0483
      2 C2          1.8322   20.9078   45.8147 C.ar        1 PRL      -0.0317
      3 C3          1.9645   20.2928   44.5551 C.ar        1 PRL       0.0415
      4 C4          2.8345   19.1943   44.3987 C.ar        1 PRL      -0.0313
      5 C5          6.0690   16.1046   46.1263 C.ar        1 PRL      -0.0313
      6 C6          6.8395   15.5818   47.1839 C.ar        1 PRL       0.0415
      7 C7          6.7484   16.1556   48.4675 C.ar        1 PRL      -0.0317
      8 C8          5.8960   17.2497   48.6974 C.ar        1 PRL      -0.0483
      9 C9          4.2414   18.8678   47.8344 C.ar        1 PRL      -0.0279
     10 N10         4.4481   17.6877   45.3375 N.ar        1 PRL      -0.3286
     11 C11         3.5915   18.7304   45.4918 C.ar        1 PRL       0.0162
     12 C12         5.1149   17.7766   47.6451 C.ar        1 PRL       0.0016
     13 C13         3.4668   19.3565   46.7616 C.ar        1 PRL       0.0016
     14 C14         5.2033   17.1930   46.3519 C.ar        1 PRL       0.0162
     15 N15         1.2716   20.7627   43.5044 N.pl3       1 PRL      -0.3324
     16 N16         7.6549   14.5335   46.9716 N.pl3       1 PRL      -0.3324
     17 H1          2.4687   20.8979   47.8213 H           1 PRL       0.0666
     18 H2          1.1964   21.6991   45.9335 H           1 PRL       0.0587
     19 H3          2.9342   18.7464   43.4839 H           1 PRL       0.0438
     20 H4          6.1311   15.6866   45.1948 H           1 PRL       0.0438
     21 H5          7.3001   15.7774   49.2422 H           1 PRL       0.0587
     22 H6          5.8441   17.6538   49.6360 H           1 PRL       0.0666
     23 H7          4.1662   19.3052   48.7578 H           1 PRL       0.0848
     24 H8          0.6841   21.5300   43.6003 H           1 PRL       0.1756
     25 H9          1.3759   20.3462   42.6383 H           1 PRL       0.1756
     26 H10         7.7192   14.1375   46.0883 H           1 PRL       0.1756
     27 H11         8.1751   14.1670   47.7041 H           1 PRL       0.1756
@<TRIPOS>BOND
     1     1    13  ar
     2     1     2  ar
     3     2     3  ar
     4     3    15   1
     5     3     4  ar
     6     4    11  ar
     7    11    10  ar
     8    11    13  ar
     9    13     9  ar
    10     9    12  ar
    11    12     8  ar
    12    12    14  ar
    13    14     5  ar
    14    14    10  ar
    15     5     6  ar
    16     6    16   1
    17     6     7  ar
    18     7     8  ar
    19     1    17   1
    20     2    18   1
    21     4    19   1
    22     5    20   1
    23     7    21   1
    24     8    22   1
    25     9    23   1
    26    15    24   1
    27    15    25   1
    28    16    26   1
    29    16    27   1
@<TRIPOS>SUBSTRUCTURE
     1  PRL      1

