@<TRIPOS>MOLECULE
1bcu_ligand_041
    27    29
SMALL
GAST_HUCK
****
This file was generated by PARSER (from files_GN.cpp)

@<TRIPOS>ATOM
      1 C1          7.3250   20.2167   58.8177 C.ar        1 PRL      -0.0483
      2 C2          7.9567   21.1974   59.6052 C.ar        1 PRL      -0.0317
      3 C3          8.4202   22.3901   59.0158 C.ar        1 PRL       0.0415
      4 C4          8.2469   22.6040   57.6348 C.ar        1 PRL      -0.0313
      5 C5          6.7691   21.1815   53.3029 C.ar        1 PRL      -0.0313
      6 C6          6.1483   20.2447   52.4518 C.ar        1 PRL       0.0415
      7 C7          5.6687   19.0288   52.9797 C.ar        1 PRL      -0.0317
      8 C8          5.8002   18.7503   54.3530 C.ar        1 PRL      -0.0483
      9 C9          6.5477   19.4538   56.5989 C.ar        1 PRL      -0.0279
     10 N10         7.4975   21.8122   55.5020 N.ar        1 PRL      -0.3286
     11 C11         7.6342   21.6184   56.8380 C.ar        1 PRL       0.0162
     12 C12         6.4094   19.6886   55.2142 C.ar        1 PRL       0.0016
     13 C13         7.1622   20.4160   57.4290 C.ar        1 PRL       0.0016
     14 C14         6.9013   20.9097   54.6791 C.ar        1 PRL       0.0162
     15 N15         9.0299   23.3239   59.7665 N.pl3       1 PRL      -0.3324
     16 N16         6.0138   20.5096   51.1402 N.pl3       1 PRL      -0.3324
     17 H1          6.9941   19.3564   59.2623 H           1 PRL       0.0666
     18 H2          8.0769   21.0369   60.6087 H           1 PRL       0.0587
     19 H3          8.5651   23.4786   57.2093 H           1 PRL       0.0438
     20 H4          7.1208   22.0629   52.9218 H           1 PRL       0.0438
     21 H5          5.2205   18.3418   52.3682 H           1 PRL       0.0587
     22 H6          5.4499   17.8610   54.7178 H           1 PRL       0.0666
     23 H7          6.2004   18.5802   57.0042 H           1 PRL       0.0848
     24 H8          9.1361   23.1875   60.7196 H           1 PRL       0.1756
     25 H9          9.3495   24.1449   59.3595 H           1 PRL       0.1756
     26 H10         6.3399   21.3480   50.7765 H           1 PRL       0.1756
     27 H11         5.5868   19.8647   50.5544 H           1 PRL       0.1756
@<TRIPOS>BOND
     1     1    13  ar
     2     1     2  ar
     3     2     3  ar
     4     3    15   1
     5     3     4  ar
     6     4    11  ar
     7    11    10  ar
     8    11    13  ar
     9    13     9  ar
    10     9    12  ar
    11    12     8  ar
    12    12    14  ar
    13    14     5  ar
    14    14    10  ar
    15     5     6  ar
    16     6    16   1
    17     6     7  ar
    18     7     8  ar
    19     1    17   1
    20     2    18   1
    21     4    19   1
    22     5    20   1
    23     7    21   1
    24     8    22   1
    25     9    23   1
    26    15    24   1
    27    15    25   1
    28    16    26   1
    29    16    27   1
@<TRIPOS>SUBSTRUCTURE
     1  PRL      1

