@<TRIPOS>MOLECULE
1bcu_ligand_087
    27    29
SMALL
GAST_HUCK
****
This file was generated by PARSER (from files_GN.cpp)

@<TRIPOS>ATOM
      1 C1          8.1972   13.6685   47.7665 C.ar        1 PRL      -0.0483
      2 C2          7.6048   14.9017   47.4363 C.ar        1 PRL      -0.0317
      3 C3          6.7971   15.0188   46.2878 C.ar        1 PRL       0.0415
      4 C4          6.5714   13.8926   45.4712 C.ar        1 PRL      -0.0313
      5 C5          7.2196    9.2679   44.4031 C.ar        1 PRL      -0.0313
      6 C6          7.7757    8.0007   44.6689 C.ar        1 PRL       0.0415
      7 C7          8.6011    7.8198   45.7972 C.ar        1 PRL      -0.0317
      8 C8          8.8724    8.8990   46.6591 C.ar        1 PRL      -0.0483
      9 C9          8.5591   11.2807   47.2417 C.ar        1 PRL      -0.0279
     10 N10         6.9489   11.5714   45.0073 N.ar        1 PRL      -0.3286
     11 C11         7.1625   12.6557   45.7960 C.ar        1 PRL       0.0162
     12 C12         8.3180   10.1719   46.4016 C.ar        1 PRL       0.0016
     13 C13         7.9829   12.5363   46.9503 C.ar        1 PRL       0.0016
     14 C14         7.4869   10.3512   45.2627 C.ar        1 PRL       0.0162
     15 N15         6.2514   16.2054   45.9686 N.pl3       1 PRL      -0.3324
     16 N16         7.5182    6.9660   43.8492 N.pl3       1 PRL      -0.3324
     17 H1          8.7806   13.6032   48.6045 H           1 PRL       0.0666
     18 H2          7.7600   15.7119   48.0414 H           1 PRL       0.0587
     19 H3          5.9863   13.9753   44.6350 H           1 PRL       0.0438
     20 H4          6.6193    9.4026   43.5845 H           1 PRL       0.0438
     21 H5          9.0085    6.9026   45.9970 H           1 PRL       0.0587
     22 H6          9.4719    8.7478   47.4747 H           1 PRL       0.0666
     23 H7          9.1562   11.1737   48.0667 H           1 PRL       0.0848
     24 H8          6.4675   16.9958   46.4884 H           1 PRL       0.1756
     25 H9          5.6811   16.2840   45.1880 H           1 PRL       0.1756
     26 H10         6.9482    7.0898   43.0739 H           1 PRL       0.1756
     27 H11         7.9002    6.0933   44.0319 H           1 PRL       0.1756
@<TRIPOS>BOND
     1     1    13  ar
     2     1     2  ar
     3     2     3  ar
     4     3    15   1
     5     3     4  ar
     6     4    11  ar
     7    11    10  ar
     8    11    13  ar
     9    13     9  ar
    10     9    12  ar
    11    12     8  ar
    12    12    14  ar
    13    14     5  ar
    14    14    10  ar
    15     5     6  ar
    16     6    16   1
    17     6     7  ar
    18     7     8  ar
    19     1    17   1
    20     2    18   1
    21     4    19   1
    22     5    20   1
    23     7    21   1
    24     8    22   1
    25     9    23   1
    26    15    24   1
    27    15    25   1
    28    16    26   1
    29    16    27   1
@<TRIPOS>SUBSTRUCTURE
     1  PRL      1

