@<TRIPOS>MOLECULE
1bcu_ligand_062
    27    29
SMALL
GAST_HUCK
****
This file was generated by PARSER (from files_GN.cpp)

@<TRIPOS>ATOM
      1 C1         11.0450   23.0499   45.9254 C.ar        1 PRL      -0.0483
      2 C2         11.7099   22.0203   45.2298 C.ar        1 PRL      -0.0317
      3 C3         11.5738   20.6791   45.6412 C.ar        1 PRL       0.0415
      4 C4         10.7692   20.3721   46.7529 C.ar        1 PRL      -0.0313
      5 C5          7.6457   21.6069   50.1597 C.ar        1 PRL      -0.0313
      6 C6          6.8494   22.5627   50.8216 C.ar        1 PRL       0.0415
      7 C7          6.9325   23.9201   50.4457 C.ar        1 PRL      -0.0317
      8 C8          7.8166   24.3267   49.4298 C.ar        1 PRL      -0.0483
      9 C9          9.4782   23.7342   47.7069 C.ar        1 PRL      -0.0279
     10 N10         9.2454   21.0783   48.4585 N.ar        1 PRL      -0.3286
     11 C11        10.0788   21.3920   47.4364 C.ar        1 PRL       0.0162
     12 C12         8.6035   23.3729   48.7552 C.ar        1 PRL       0.0016
     13 C13        10.2091   22.7426   47.0200 C.ar        1 PRL       0.0016
     14 C14         8.5106   22.0039   49.1250 C.ar        1 PRL       0.0162
     15 N15        12.2029   19.6973   44.9617 N.pl3       1 PRL      -0.3324
     16 N16         6.0084   22.1860   51.8000 N.pl3       1 PRL      -0.3324
     17 H1         11.1594   24.0174   45.6165 H           1 PRL       0.0666
     18 H2         12.3026   22.2566   44.4310 H           1 PRL       0.0587
     19 H3         10.6479   19.4039   47.0466 H           1 PRL       0.0438
     20 H4          7.5832   20.6229   50.4256 H           1 PRL       0.0438
     21 H5          6.3467   24.6202   50.9041 H           1 PRL       0.0587
     22 H6          7.8555   25.3154   49.1708 H           1 PRL       0.0666
     23 H7          9.5745   24.7183   47.4400 H           1 PRL       0.0848
     24 H8         12.7466   19.9114   44.1881 H           1 PRL       0.1756
     25 H9         12.1063   18.7737   45.2412 H           1 PRL       0.1756
     26 H10         5.9450   21.2519   52.0578 H           1 PRL       0.1756
     27 H11         5.4479   22.8438   52.2416 H           1 PRL       0.1756
@<TRIPOS>BOND
     1     1    13  ar
     2     1     2  ar
     3     2     3  ar
     4     3    15   1
     5     3     4  ar
     6     4    11  ar
     7    11    10  ar
     8    11    13  ar
     9    13     9  ar
    10     9    12  ar
    11    12     8  ar
    12    12    14  ar
    13    14     5  ar
    14    14    10  ar
    15     5     6  ar
    16     6    16   1
    17     6     7  ar
    18     7     8  ar
    19     1    17   1
    20     2    18   1
    21     4    19   1
    22     5    20   1
    23     7    21   1
    24     8    22   1
    25     9    23   1
    26    15    24   1
    27    15    25   1
    28    16    26   1
    29    16    27   1
@<TRIPOS>SUBSTRUCTURE
     1  PRL      1

