@<TRIPOS>MOLECULE
1bcu_ligand_055
    27    29
SMALL
GAST_HUCK
****
This file was generated by PARSER (from files_GN.cpp)

@<TRIPOS>ATOM
      1 C1         16.1216   16.1034   63.2077 C.ar        1 PRL      -0.0483
      2 C2         17.2700   16.5371   63.8945 C.ar        1 PRL      -0.0317
      3 C3         18.3663   17.0664   63.1844 C.ar        1 PRL       0.0415
      4 C4         18.3078   17.1721   61.7800 C.ar        1 PRL      -0.0313
      5 C5         16.0444   16.5329   57.5995 C.ar        1 PRL      -0.0313
      6 C6         14.9310   16.1071   56.8471 C.ar        1 PRL       0.0415
      7 C7         13.8074   15.5639   57.5023 C.ar        1 PRL      -0.0317
      8 C8         13.7932   15.4414   58.9033 C.ar        1 PRL      -0.0483
      9 C9         14.9287   15.7642   61.0726 C.ar        1 PRL      -0.0279
     10 N10        17.1073   16.8236   59.7315 N.ar        1 PRL      -0.3286
     11 C11        17.1620   16.7364   61.0855 C.ar        1 PRL       0.0162
     12 C12        14.9036   15.8660   59.6657 C.ar        1 PRL       0.0016
     13 C13        16.0581   16.1964   61.8006 C.ar        1 PRL       0.0016
     14 C14        16.0355   16.4152   59.0039 C.ar        1 PRL       0.0162
     15 N15        19.4604   17.4720   63.8523 N.pl3       1 PRL      -0.3324
     16 N16        14.9301   16.2344   55.5080 N.pl3       1 PRL      -0.3324
     17 H1         15.3365   15.7196   63.7396 H           1 PRL       0.0666
     18 H2         17.3037   16.4599   64.9142 H           1 PRL       0.0587
     19 H3         19.1013   17.5600   61.2623 H           1 PRL       0.0438
     20 H4         16.8607   16.9301   57.1257 H           1 PRL       0.0438
     21 H5         12.9940   15.2548   56.9630 H           1 PRL       0.0587
     22 H6         12.9685   15.0452   59.3624 H           1 PRL       0.0666
     23 H7         14.1239   15.3703   61.5686 H           1 PRL       0.0848
     24 H8         19.4954   17.3979   64.8185 H           1 PRL       0.1756
     25 H9         20.2213   17.8329   63.3730 H           1 PRL       0.1756
     26 H10        15.6956   16.6202   55.0557 H           1 PRL       0.1756
     27 H11        14.1610   15.9455   54.9916 H           1 PRL       0.1756
@<TRIPOS>BOND
     1     1    13  ar
     2     1     2  ar
     3     2     3  ar
     4     3    15   1
     5     3     4  ar
     6     4    11  ar
     7    11    10  ar
     8    11    13  ar
     9    13     9  ar
    10     9    12  ar
    11    12     8  ar
    12    12    14  ar
    13    14     5  ar
    14    14    10  ar
    15     5     6  ar
    16     6    16   1
    17     6     7  ar
    18     7     8  ar
    19     1    17   1
    20     2    18   1
    21     4    19   1
    22     5    20   1
    23     7    21   1
    24     8    22   1
    25     9    23   1
    26    15    24   1
    27    15    25   1
    28    16    26   1
    29    16    27   1
@<TRIPOS>SUBSTRUCTURE
     1  PRL      1

