@<TRIPOS>MOLECULE
1bcu_ligand_034
    27    29
SMALL
GAST_HUCK
****
This file was generated by PARSER (from files_GN.cpp)

@<TRIPOS>ATOM
      1 C1         12.3645    9.6127   47.1208 C.ar        1 PRL      -0.0483
      2 C2         13.0719    9.7811   45.9160 C.ar        1 PRL      -0.0317
      3 C3         14.3221   10.4325   45.9103 C.ar        1 PRL       0.0415
      4 C4         14.8669   10.9158   47.1170 C.ar        1 PRL      -0.0313
      5 C5         14.6739   11.5738   51.8594 C.ar        1 PRL      -0.0313
      6 C6         14.0353   11.4209   53.1071 C.ar        1 PRL       0.0415
      7 C7         12.7807   10.7824   53.1784 C.ar        1 PRL      -0.0317
      8 C8         12.1662   10.2914   52.0120 C.ar        1 PRL      -0.0483
      9 C9         12.2282    9.9446   49.5657 C.ar        1 PRL      -0.0279
     10 N10        14.6890   11.2121   49.4897 N.ar        1 PRL      -0.3286
     11 C11        14.1630   10.7504   48.3261 C.ar        1 PRL       0.0162
     12 C12        12.8030   10.4320   50.7592 C.ar        1 PRL       0.0016
     13 C13        12.9018   10.0952   48.3343 C.ar        1 PRL       0.0016
     14 C14        14.0660   11.0800   50.6891 C.ar        1 PRL       0.0162
     15 N15        14.9904   10.5967   44.7551 N.pl3       1 PRL      -0.3324
     16 N16        14.6217   11.8808   54.2264 N.pl3       1 PRL      -0.3324
     17 H1         11.4581    9.1383   47.1057 H           1 PRL       0.0666
     18 H2         12.6692    9.4296   45.0438 H           1 PRL       0.0587
     19 H3         15.7726   11.3927   47.1160 H           1 PRL       0.0438
     20 H4         15.5849   12.0374   51.8028 H           1 PRL       0.0438
     21 H5         12.3092   10.6716   54.0798 H           1 PRL       0.0587
     22 H6         11.2563    9.8286   52.0839 H           1 PRL       0.0666
     23 H7         11.3193    9.4735   49.5943 H           1 PRL       0.0848
     24 H8         14.6153   10.2649   43.9242 H           1 PRL       0.1756
     25 H9         15.8496   11.0473   44.7498 H           1 PRL       0.1756
     26 H10        15.4797   12.3295   54.1739 H           1 PRL       0.1756
     27 H11        14.1821   11.7781   55.0854 H           1 PRL       0.1756
@<TRIPOS>BOND
     1     1    13  ar
     2     1     2  ar
     3     2     3  ar
     4     3    15   1
     5     3     4  ar
     6     4    11  ar
     7    11    10  ar
     8    11    13  ar
     9    13     9  ar
    10     9    12  ar
    11    12     8  ar
    12    12    14  ar
    13    14     5  ar
    14    14    10  ar
    15     5     6  ar
    16     6    16   1
    17     6     7  ar
    18     7     8  ar
    19     1    17   1
    20     2    18   1
    21     4    19   1
    22     5    20   1
    23     7    21   1
    24     8    22   1
    25     9    23   1
    26    15    24   1
    27    15    25   1
    28    16    26   1
    29    16    27   1
@<TRIPOS>SUBSTRUCTURE
     1  PRL      1

