@<TRIPOS>MOLECULE
1bcu_ligand_025
    27    29
SMALL
GAST_HUCK
****
This file was generated by PARSER (from files_GN.cpp)

@<TRIPOS>ATOM
      1 C1          1.6580   17.2620   58.9270 C.ar        1 PRL      -0.0483
      2 C2          1.5271   15.9884   58.3433 C.ar        1 PRL      -0.0317
      3 C3          2.5375   15.4859   57.4993 C.ar        1 PRL       0.0415
      4 C4          3.6899   16.2578   57.2475 C.ar        1 PRL      -0.0313
      5 C5          6.2614   20.2699   57.7446 C.ar        1 PRL      -0.0313
      6 C6          6.4403   21.5720   58.2545 C.ar        1 PRL       0.0415
      7 C7          5.4644   22.1333   59.1028 C.ar        1 PRL      -0.0317
      8 C8          4.3124   21.4001   59.4420 C.ar        1 PRL      -0.0483
      9 C9          2.9685   19.3373   59.2223 C.ar        1 PRL      -0.0279
     10 N10         4.9202   18.2912   57.5605 N.ar        1 PRL      -0.3286
     11 C11         3.8238   17.5360   57.8247 C.ar        1 PRL       0.0162
     12 C12         4.1193   20.0987   58.9273 C.ar        1 PRL       0.0016
     13 C13         2.8029   18.0479   58.6710 C.ar        1 PRL       0.0016
     14 C14         5.1050   19.5360   58.0717 C.ar        1 PRL       0.0162
     15 N15         2.3926   14.2807   56.9212 N.pl3       1 PRL      -0.3324
     16 N16         7.5341   22.2812   57.9263 N.pl3       1 PRL      -0.3324
     17 H1          0.9093   17.6127   59.5304 H           1 PRL       0.0666
     18 H2          0.6882   15.4338   58.5303 H           1 PRL       0.0587
     19 H3          4.4225   15.8974   56.6307 H           1 PRL       0.0438
     20 H4          6.9666   19.8622   57.1246 H           1 PRL       0.0438
     21 H5          5.5882   23.0780   59.4768 H           1 PRL       0.0587
     22 H6          3.6133   21.8259   60.0560 H           1 PRL       0.0666
     23 H7          2.2431   19.7269   59.8316 H           1 PRL       0.0848
     24 H8          1.5928   13.7562   57.0829 H           1 PRL       0.1756
     25 H9          3.0834   13.9365   56.3332 H           1 PRL       0.1756
     26 H10         8.2129   21.8941   57.3507 H           1 PRL       0.1756
     27 H11         7.6403   23.1877   58.2553 H           1 PRL       0.1756
@<TRIPOS>BOND
     1     1    13  ar
     2     1     2  ar
     3     2     3  ar
     4     3    15   1
     5     3     4  ar
     6     4    11  ar
     7    11    10  ar
     8    11    13  ar
     9    13     9  ar
    10     9    12  ar
    11    12     8  ar
    12    12    14  ar
    13    14     5  ar
    14    14    10  ar
    15     5     6  ar
    16     6    16   1
    17     6     7  ar
    18     7     8  ar
    19     1    17   1
    20     2    18   1
    21     4    19   1
    22     5    20   1
    23     7    21   1
    24     8    22   1
    25     9    23   1
    26    15    24   1
    27    15    25   1
    28    16    26   1
    29    16    27   1
@<TRIPOS>SUBSTRUCTURE
     1  PRL      1

