@<TRIPOS>MOLECULE
1bcu_ligand_009
    27    29
SMALL
GAST_HUCK
****
This file was generated by PARSER (from files_GN.cpp)

@<TRIPOS>ATOM
      1 C1         10.9778   21.1953   46.7062 C.ar        1 PRL      -0.0483
      2 C2         11.4128   22.4391   46.2070 C.ar        1 PRL      -0.0317
      3 C3         11.3803   23.5837   47.0286 C.ar        1 PRL       0.0415
      4 C4         10.9221   23.4779   48.3582 C.ar        1 PRL      -0.0313
      5 C5          9.1777   20.9297   52.0280 C.ar        1 PRL      -0.0313
      6 C6          8.7194   19.7208   52.5885 C.ar        1 PRL       0.0415
      7 C7          8.7023   18.5472   51.8100 C.ar        1 PRL      -0.0317
      8 C8          9.1314   18.5810   50.4688 C.ar        1 PRL      -0.0483
      9 C9         10.0209   19.8677   48.5557 C.ar        1 PRL      -0.0279
     10 N10        10.0570   22.1323   50.1461 N.ar        1 PRL      -0.3286
     11 C11        10.4925   22.2336   48.8633 C.ar        1 PRL       0.0162
     12 C12         9.5880   19.7903   49.8965 C.ar        1 PRL       0.0016
     13 C13        10.5001   21.0863   48.0289 C.ar        1 PRL       0.0016
     14 C14         9.6151   20.9675   50.6887 C.ar        1 PRL       0.0162
     15 N15        11.7744   24.7726   46.5384 N.pl3       1 PRL      -0.3324
     16 N16         8.2889   19.6828   53.8613 N.pl3       1 PRL      -0.3324
     17 H1         11.0038   20.3738   46.0915 H           1 PRL       0.0666
     18 H2         11.7422   22.5066   45.2428 H           1 PRL       0.0587
     19 H3         10.8928   24.3091   48.9569 H           1 PRL       0.0438
     20 H4          9.1943   21.7844   52.5956 H           1 PRL       0.0438
     21 H5          8.3716   17.6669   52.2084 H           1 PRL       0.0587
     22 H6          9.1117   17.7196   49.9150 H           1 PRL       0.0666
     23 H7          9.9803   19.0336   47.9601 H           1 PRL       0.0848
     24 H8         12.1027   24.8392   45.6275 H           1 PRL       0.1756
     25 H9         11.7269   25.5686   47.0892 H           1 PRL       0.1756
     26 H10         8.2710   20.4908   54.3966 H           1 PRL       0.1756
     27 H11         7.9826   18.8462   54.2481 H           1 PRL       0.1756
@<TRIPOS>BOND
     1     1    13  ar
     2     1     2  ar
     3     2     3  ar
     4     3    15   1
     5     3     4  ar
     6     4    11  ar
     7    11    10  ar
     8    11    13  ar
     9    13     9  ar
    10     9    12  ar
    11    12     8  ar
    12    12    14  ar
    13    14     5  ar
    14    14    10  ar
    15     5     6  ar
    16     6    16   1
    17     6     7  ar
    18     7     8  ar
    19     1    17   1
    20     2    18   1
    21     4    19   1
    22     5    20   1
    23     7    21   1
    24     8    22   1
    25     9    23   1
    26    15    24   1
    27    15    25   1
    28    16    26   1
    29    16    27   1
@<TRIPOS>SUBSTRUCTURE
     1  PRL      1

