@<TRIPOS>MOLECULE
1bcu_ligand_093
    27    29
SMALL
GAST_HUCK
****
This file was generated by PARSER (from files_GN.cpp)

@<TRIPOS>ATOM
      1 C1         13.4637   14.1007   56.2257 C.ar        1 PRL      -0.0483
      2 C2         14.4404   13.3420   55.5541 C.ar        1 PRL      -0.0317
      3 C3         14.0602   12.2768   54.7127 C.ar        1 PRL       0.0415
      4 C4         12.6942   11.9806   54.5290 C.ar        1 PRL      -0.0313
      5 C5          8.0565   12.7651   55.4514 C.ar        1 PRL      -0.0313
      6 C6          7.0251   13.4896   56.0833 C.ar        1 PRL       0.0415
      7 C7          7.3454   14.5644   56.9372 C.ar        1 PRL      -0.0317
      8 C8          8.6884   14.9149   57.1668 C.ar        1 PRL      -0.0483
      9 C9         11.0852   14.5262   56.7265 C.ar        1 PRL      -0.0279
     10 N10        10.3966   12.4377   55.0416 N.ar        1 PRL      -0.3286
     11 C11        11.7125   12.7333   55.2034 C.ar        1 PRL       0.0162
     12 C12         9.7268   14.1997   56.5328 C.ar        1 PRL       0.0016
     13 C13        12.0949   13.7994   56.0621 C.ar        1 PRL       0.0016
     14 C14         9.4026   13.1209   55.6659 C.ar        1 PRL       0.0162
     15 N15        15.0015   11.5403   54.0973 N.pl3       1 PRL      -0.3324
     16 N16         5.7384   13.1627   55.8680 N.pl3       1 PRL      -0.3324
     17 H1         13.7572   14.8685   56.8352 H           1 PRL       0.0666
     18 H2         15.4294   13.5675   55.6844 H           1 PRL       0.0587
     19 H3         12.4125   11.2140   53.9114 H           1 PRL       0.0438
     20 H4          7.8293   11.9841   54.8290 H           1 PRL       0.0438
     21 H5          6.6018   15.0981   57.3944 H           1 PRL       0.0587
     22 H6          8.9035   15.6962   57.7912 H           1 PRL       0.0666
     23 H7         11.3399   15.2961   57.3518 H           1 PRL       0.0848
     24 H8         15.9409   11.7364   54.2391 H           1 PRL       0.1756
     25 H9         14.7451   10.7998   53.5257 H           1 PRL       0.1756
     26 H10         5.5149   12.4239   55.2807 H           1 PRL       0.1756
     27 H11         5.0303   13.6700   56.2946 H           1 PRL       0.1756
@<TRIPOS>BOND
     1     1    13  ar
     2     1     2  ar
     3     2     3  ar
     4     3    15   1
     5     3     4  ar
     6     4    11  ar
     7    11    10  ar
     8    11    13  ar
     9    13     9  ar
    10     9    12  ar
    11    12     8  ar
    12    12    14  ar
    13    14     5  ar
    14    14    10  ar
    15     5     6  ar
    16     6    16   1
    17     6     7  ar
    18     7     8  ar
    19     1    17   1
    20     2    18   1
    21     4    19   1
    22     5    20   1
    23     7    21   1
    24     8    22   1
    25     9    23   1
    26    15    24   1
    27    15    25   1
    28    16    26   1
    29    16    27   1
@<TRIPOS>SUBSTRUCTURE
     1  PRL      1

