@<TRIPOS>MOLECULE
1bcu_ligand_060
    27    29
SMALL
GAST_HUCK
****
This file was generated by PARSER (from files_GN.cpp)

@<TRIPOS>ATOM
      1 C1          2.7403   14.2138   47.5156 C.ar        1 PRL      -0.0483
      2 C2          2.4311   13.7444   48.8048 C.ar        1 PRL      -0.0317
      3 C3          1.7781   14.5881   49.7262 C.ar        1 PRL       0.0415
      4 C4          1.4308   15.9034   49.3543 C.ar        1 PRL      -0.0313
      5 C5          1.3236   19.4901   46.1707 C.ar        1 PRL      -0.0313
      6 C6          1.6035   20.0257   44.8965 C.ar        1 PRL       0.0415
      7 C7          2.2569   19.2337   43.9299 C.ar        1 PRL      -0.0317
      8 C8          2.6335   17.9117   44.2355 C.ar        1 PRL      -0.0483
      9 C9          2.7030   16.0424   45.8530 C.ar        1 PRL      -0.0279
     10 N10         1.4151   17.6471   47.7046 N.ar        1 PRL      -0.3286
     11 C11         1.7425   16.3774   48.0645 C.ar        1 PRL       0.0162
     12 C12         2.3498   17.3651   45.5076 C.ar        1 PRL       0.0016
     13 C13         2.4037   15.5303   47.1340 C.ar        1 PRL       0.0016
     14 C14         1.6891   18.1662   46.4778 C.ar        1 PRL       0.0162
     15 N15         1.4907   14.1453   50.9614 N.pl3       1 PRL      -0.3324
     16 N16         1.2423   21.2839   44.6004 N.pl3       1 PRL      -0.3324
     17 H1          3.2168   13.5851   46.8624 H           1 PRL       0.0666
     18 H2          2.6855   12.7900   49.0709 H           1 PRL       0.0587
     19 H3          0.9551   16.5143   50.0235 H           1 PRL       0.0438
     20 H4          0.8460   20.0665   46.8701 H           1 PRL       0.0438
     21 H5          2.4616   19.6178   43.0052 H           1 PRL       0.0587
     22 H6          3.1138   17.3552   43.5245 H           1 PRL       0.0666
     23 H7          3.1818   15.4489   45.1688 H           1 PRL       0.0848
     24 H8          1.7341   13.2454   51.2291 H           1 PRL       0.1756
     25 H9          1.0453   14.7323   51.5916 H           1 PRL       0.1756
     26 H10         0.7958   21.8309   45.2665 H           1 PRL       0.1756
     27 H11         1.4053   21.6409   43.7122 H           1 PRL       0.1756
@<TRIPOS>BOND
     1     1    13  ar
     2     1     2  ar
     3     2     3  ar
     4     3    15   1
     5     3     4  ar
     6     4    11  ar
     7    11    10  ar
     8    11    13  ar
     9    13     9  ar
    10     9    12  ar
    11    12     8  ar
    12    12    14  ar
    13    14     5  ar
    14    14    10  ar
    15     5     6  ar
    16     6    16   1
    17     6     7  ar
    18     7     8  ar
    19     1    17   1
    20     2    18   1
    21     4    19   1
    22     5    20   1
    23     7    21   1
    24     8    22   1
    25     9    23   1
    26    15    24   1
    27    15    25   1
    28    16    26   1
    29    16    27   1
@<TRIPOS>SUBSTRUCTURE
     1  PRL      1

