@<TRIPOS>MOLECULE
1bcu_ligand_076
    27    29
SMALL
GAST_HUCK
****
This file was generated by PARSER (from files_GN.cpp)

@<TRIPOS>ATOM
      1 C1          1.0959   15.9004   49.1853 C.ar        1 PRL      -0.0483
      2 C2          1.4296   14.5549   48.9447 C.ar        1 PRL      -0.0317
      3 C3          2.7703   14.1827   48.7221 C.ar        1 PRL       0.0415
      4 C4          3.7853   15.1603   48.7576 C.ar        1 PRL      -0.0313
      5 C5          5.2389   19.7028   49.2333 C.ar        1 PRL      -0.0313
      6 C6          4.9791   21.0661   49.4792 C.ar        1 PRL       0.0415
      7 C7          3.6570   21.4981   49.7072 C.ar        1 PRL      -0.0317
      8 C8          2.5939   20.5755   49.6854 C.ar        1 PRL      -0.0483
      9 C9          1.8106   18.2500   49.4289 C.ar        1 PRL      -0.0279
     10 N10         4.4312   17.4557   49.0090 N.ar        1 PRL      -0.3286
     11 C11         3.4569   16.5096   48.9921 C.ar        1 PRL       0.0162
     12 C12         2.8465   19.2085   49.4472 C.ar        1 PRL       0.0016
     13 C13         2.1038   16.8882   49.2043 C.ar        1 PRL       0.0016
     14 C14         4.1805   18.7728   49.2248 C.ar        1 PRL       0.0162
     15 N15         3.0757   12.8982   48.4658 N.pl3       1 PRL      -0.3324
     16 N16         5.9892   21.9536   49.5049 N.pl3       1 PRL      -0.3324
     17 H1          0.1169   16.1540   49.3418 H           1 PRL       0.0666
     18 H2          0.6892   13.8488   48.9290 H           1 PRL       0.0587
     19 H3          4.7622   14.8929   48.6057 H           1 PRL       0.0438
     20 H4          6.1981   19.3840   49.0682 H           1 PRL       0.0438
     21 H5          3.4615   22.4852   49.8921 H           1 PRL       0.0587
     22 H6          1.6397   20.9064   49.8509 H           1 PRL       0.0666
     23 H7          0.8418   18.5441   49.5809 H           1 PRL       0.0848
     24 H8          2.3727   12.2309   48.4258 H           1 PRL       0.1756
     25 H9          3.9959   12.6391   48.3016 H           1 PRL       0.1756
     26 H10         6.9003   21.6603   49.3476 H           1 PRL       0.1756
     27 H11         5.8084   22.8901   49.6834 H           1 PRL       0.1756
@<TRIPOS>BOND
     1     1    13  ar
     2     1     2  ar
     3     2     3  ar
     4     3    15   1
     5     3     4  ar
     6     4    11  ar
     7    11    10  ar
     8    11    13  ar
     9    13     9  ar
    10     9    12  ar
    11    12     8  ar
    12    12    14  ar
    13    14     5  ar
    14    14    10  ar
    15     5     6  ar
    16     6    16   1
    17     6     7  ar
    18     7     8  ar
    19     1    17   1
    20     2    18   1
    21     4    19   1
    22     5    20   1
    23     7    21   1
    24     8    22   1
    25     9    23   1
    26    15    24   1
    27    15    25   1
    28    16    26   1
    29    16    27   1
@<TRIPOS>SUBSTRUCTURE
     1  PRL      1

