@<TRIPOS>MOLECULE
1bcu_ligand_072
    27    29
SMALL
GAST_HUCK
****
This file was generated by PARSER (from files_GN.cpp)

@<TRIPOS>ATOM
      1 C1          2.8758   18.1662   43.9838 C.ar        1 PRL      -0.0483
      2 C2          2.2111   19.3984   44.0816 C.ar        1 PRL      -0.0317
      3 C3          1.1807   19.5803   45.0243 C.ar        1 PRL       0.0415
      4 C4          0.8089   18.5115   45.8656 C.ar        1 PRL      -0.0313
      5 C5          1.2532   13.9822   47.3824 C.ar        1 PRL      -0.0313
      6 C6          1.8666   12.7154   47.3340 C.ar        1 PRL       0.0415
      7 C7          2.9002   12.4711   46.4095 C.ar        1 PRL      -0.0317
      8 C8          3.3238   13.4878   45.5375 C.ar        1 PRL      -0.0483
      9 C9          3.1198   15.8176   44.7277 C.ar        1 PRL      -0.0279
     10 N10         1.0908   16.2330   46.5641 N.ar        1 PRL      -0.3286
     11 C11         1.4546   17.2668   45.7612 C.ar        1 PRL       0.0162
     12 C12         2.7196   14.7659   45.5798 C.ar        1 PRL       0.0016
     13 C13         2.4973   17.0827   44.8124 C.ar        1 PRL       0.0016
     14 C14         1.6751   15.0092   46.5134 C.ar        1 PRL       0.0162
     15 N15         0.5537   20.7654   45.1152 N.pl3       1 PRL      -0.3324
     16 N16         1.4651   11.7399   48.1681 N.pl3       1 PRL      -0.3324
     17 H1          3.6260   18.0570   43.2941 H           1 PRL       0.0666
     18 H2          2.4745   20.1641   43.4554 H           1 PRL       0.0587
     19 H3          0.0578   18.6452   46.5523 H           1 PRL       0.0438
     20 H4          0.4978   14.1575   48.0515 H           1 PRL       0.0438
     21 H5          3.3497   11.5525   46.3655 H           1 PRL       0.0587
     22 H6          4.0784   13.2877   44.8743 H           1 PRL       0.0666
     23 H7          3.8702   15.6655   44.0468 H           1 PRL       0.0848
     24 H8          0.8161   21.4976   44.5330 H           1 PRL       0.1756
     25 H9         -0.1648   20.8924   45.7556 H           1 PRL       0.1756
     26 H10         0.7507   11.9051   48.8043 H           1 PRL       0.1756
     27 H11         1.8886   10.8675   48.1345 H           1 PRL       0.1756
@<TRIPOS>BOND
     1     1    13  ar
     2     1     2  ar
     3     2     3  ar
     4     3    15   1
     5     3     4  ar
     6     4    11  ar
     7    11    10  ar
     8    11    13  ar
     9    13     9  ar
    10     9    12  ar
    11    12     8  ar
    12    12    14  ar
    13    14     5  ar
    14    14    10  ar
    15     5     6  ar
    16     6    16   1
    17     6     7  ar
    18     7     8  ar
    19     1    17   1
    20     2    18   1
    21     4    19   1
    22     5    20   1
    23     7    21   1
    24     8    22   1
    25     9    23   1
    26    15    24   1
    27    15    25   1
    28    16    26   1
    29    16    27   1
@<TRIPOS>SUBSTRUCTURE
     1  PRL      1

