@<TRIPOS>MOLECULE
1bcu_ligand_026
    27    29
SMALL
GAST_HUCK
****
This file was generated by PARSER (from files_GN.cpp)

@<TRIPOS>ATOM
      1 C1         11.5650   15.0539   55.3137 C.ar        1 PRL      -0.0483
      2 C2         12.8529   15.1621   55.8634 C.ar        1 PRL      -0.0317
      3 C3         13.8691   15.8464   55.1684 C.ar        1 PRL       0.0415
      4 C4         13.5865   16.4313   53.9197 C.ar        1 PRL      -0.0313
      5 C5         10.5863   17.4290   50.3109 C.ar        1 PRL      -0.0313
      6 C6          9.3167   17.3799   49.7050 C.ar        1 PRL       0.0415
      7 C7          8.2612   16.7125   50.3550 C.ar        1 PRL      -0.0317
      8 C8          8.4710   16.0955   51.6016 C.ar        1 PRL      -0.0483
      9 C9          9.9941   15.5512   53.4711 C.ar        1 PRL      -0.0279
     10 N10        12.0250   16.8868   52.1541 N.ar        1 PRL      -0.3286
     11 C11        12.2990   16.3278   53.3622 C.ar        1 PRL       0.0162
     12 C12         9.7415   16.1485   52.2195 C.ar        1 PRL       0.0016
     13 C13        11.2745   15.6339   54.0603 C.ar        1 PRL       0.0016
     14 C14        10.8041   16.8264   51.5639 C.ar        1 PRL       0.0162
     15 N15        15.1053   15.9374   55.6927 N.pl3       1 PRL      -0.3324
     16 N16         9.1212   17.9807   48.5173 N.pl3       1 PRL      -0.3324
     17 H1         10.8400   14.5523   55.8330 H           1 PRL       0.0666
     18 H2         13.0487   14.7353   56.7725 H           1 PRL       0.0587
     19 H3         14.3224   16.9275   53.4113 H           1 PRL       0.0438
     20 H4         11.3513   17.9107   49.8389 H           1 PRL       0.0438
     21 H5          7.3371   16.6677   49.9237 H           1 PRL       0.0587
     22 H6          7.6951   15.6034   52.0535 H           1 PRL       0.0666
     23 H7          9.2404   15.0565   53.9603 H           1 PRL       0.0848
     24 H8         15.3030   15.5244   56.5491 H           1 PRL       0.1756
     25 H9         15.8046   16.4058   55.2087 H           1 PRL       0.1756
     26 H10         9.8676   18.4022   48.0580 H           1 PRL       0.1756
     27 H11         8.2434   17.9545   48.0957 H           1 PRL       0.1756
@<TRIPOS>BOND
     1     1    13  ar
     2     1     2  ar
     3     2     3  ar
     4     3    15   1
     5     3     4  ar
     6     4    11  ar
     7    11    10  ar
     8    11    13  ar
     9    13     9  ar
    10     9    12  ar
    11    12     8  ar
    12    12    14  ar
    13    14     5  ar
    14    14    10  ar
    15     5     6  ar
    16     6    16   1
    17     6     7  ar
    18     7     8  ar
    19     1    17   1
    20     2    18   1
    21     4    19   1
    22     5    20   1
    23     7    21   1
    24     8    22   1
    25     9    23   1
    26    15    24   1
    27    15    25   1
    28    16    26   1
    29    16    27   1
@<TRIPOS>SUBSTRUCTURE
     1  PRL      1

