@<TRIPOS>MOLECULE
1e66_ligand_025
    40    43
SMALL
GAST_HUCK
****
This file was generated by PARSER (from files_GN.cpp)

@<TRIPOS>ATOM
      1 N1          3.0009   68.6421   65.6926 N.ar        1 HUX      -0.3279
      2 N2          1.9256   71.3282   68.6231 N.pl3       1 HUX      -0.3283
      3 C1          6.3622   69.5881   66.8072 C.ar        1 HUX       0.0385
      4 C2          5.3262   68.9639   66.0894 C.ar        1 HUX      -0.0382
      5 C3          3.9825   69.2606   66.3886 C.ar        1 HUX       0.0183
      6 C4          1.6806   68.8584   65.9029 C.ar        1 HUX       0.0124
      7 C5          0.7226   68.1002   65.0528 C.3         1 HUX      -0.0021
      8 C6         -0.7613   68.2137   65.5211 C.3         1 HUX      -0.0218
      9 C7         -1.0024   67.3263   66.6653 C.2         1 HUX      -0.1032
     10 C8         -0.9122   67.7159   67.9572 C.2         1 HUX      -0.0790
     11 C9         -0.7119   69.1364   68.2866 C.3         1 HUX      -0.0183
     12 C10         0.1185   66.5268   69.9396 C.3         1 HUX      -0.0568
     13 C11        -0.2013   70.0328   67.1156 C.3         1 HUX       0.0005
     14 C12        -1.0584   69.6961   65.8638 C.3         1 HUX      -0.0333
     15 C13         1.2691   69.8030   66.8839 C.ar        1 HUX       0.0103
     16 C14         2.2742   70.4533   67.6546 C.ar        1 HUX       0.0669
     17 C15         3.6494   70.1933   67.4078 C.ar        1 HUX       0.0195
     18 C16         4.7107   70.8240   68.1060 C.ar        1 HUX      -0.0525
     19 C17         6.0520   70.5228   67.8106 C.ar        1 HUX      -0.0494
     20 C18        -1.1264   66.7495   69.0457 C.3         1 HUX      -0.0310
     21 CL1         7.9768   69.2110   66.4743 Cl          1 HUX      -0.0699
     22 H1          1.0008   71.5809   68.7588 H           1 HUX       0.1779
     23 H2          2.6079   71.7527   69.1635 H           1 HUX       0.1779
     24 H3          5.5495   68.2887   65.3536 H           1 HUX       0.0596
     25 H4          1.0171   67.0470   65.0224 H           1 HUX       0.0470
     26 H5          0.8054   68.4888   64.0348 H           1 HUX       0.0470
     27 H6         -1.4250   67.9259   64.7009 H           1 HUX       0.0401
     28 H7         -1.1478   66.3636   66.4634 H           1 HUX       0.0247
     29 H8         -1.6754   69.5306   68.6155 H           1 HUX       0.0431
     30 H9         -0.0210   69.2325   69.1239 H           1 HUX       0.0431
     31 H10        -0.0918   65.7522   70.6803 H           1 HUX       0.0251
     32 H11         0.3896   67.4356   70.4780 H           1 HUX       0.0251
     33 H12         0.9692   66.2067   69.3340 H           1 HUX       0.0251
     34 H13        -0.3829   71.0845   67.3552 H           1 HUX       0.0444
     35 H14        -2.1233   69.8444   66.0687 H           1 HUX       0.0305
     36 H15        -0.7913   70.3398   65.0234 H           1 HUX       0.0305
     37 H16         4.5271   71.5155   68.8348 H           1 HUX       0.0636
     38 H17         6.7994   70.9901   68.3296 H           1 HUX       0.0590
     39 H18        -1.4150   65.7662   68.6591 H           1 HUX       0.0408
     40 H19        -1.9562   67.0888   69.6708 H           1 HUX       0.0408
@<TRIPOS>BOND
     1     1     5  ar
     2     1     6  ar
     3     6    15  ar
     4     6     7   1
     5     7     8   1
     6     8    14   1
     7     8     9   1
     8     9    10   2
     9    10    20   1
    10    10    11   1
    11    11    13   1
    12    13    15   1
    13    13    14   1
    14    15    16  ar
    15    16     2   1
    16    16    17  ar
    17    17    18  ar
    18    17     5  ar
    19     5     4  ar
    20     4     3  ar
    21     3    19  ar
    22    18    19  ar
    23    20    12   1
    24     3    21   1
    25     2    22   1
    26     2    23   1
    27     4    24   1
    28     7    25   1
    29     7    26   1
    30     8    27   1
    31     9    28   1
    32    11    29   1
    33    11    30   1
    34    12    31   1
    35    12    32   1
    36    12    33   1
    37    13    34   1
    38    14    35   1
    39    14    36   1
    40    18    37   1
    41    19    38   1
    42    20    39   1
    43    20    40   1
@<TRIPOS>SUBSTRUCTURE
     1  HUX      3

