@<TRIPOS>MOLECULE
1e66_ligand_018
    40    43
SMALL
GAST_HUCK
****
This file was generated by PARSER (from files_GN.cpp)

@<TRIPOS>ATOM
      1 N1          1.6128   69.5908   63.4863 N.ar        1 HUX      -0.3279
      2 N2          3.2154   68.4755   59.8580 N.pl3       1 HUX      -0.3283
      3 C1         -1.2352   70.4757   61.3528 C.ar        1 HUX       0.0385
      4 C2         -0.4392   70.2884   62.4973 C.ar        1 HUX      -0.0382
      5 C3          0.8525   69.7388   62.3772 C.ar        1 HUX       0.0183
      6 C4          2.8706   69.0888   63.4667 C.ar        1 HUX       0.0124
      7 C5          3.5735   68.9735   64.7721 C.3         1 HUX      -0.0021
      8 C6          4.9056   68.1664   64.6903 C.3         1 HUX      -0.0218
      9 C7          4.6237   66.7257   64.6440 C.2         1 HUX      -0.1032
     10 C8          4.5973   65.9884   63.5103 C.2         1 HUX      -0.0790
     11 C9          4.8650   66.6097   62.2029 C.3         1 HUX      -0.0183
     12 C10         5.3378   63.7259   64.3598 C.3         1 HUX      -0.0568
     13 C11         4.8765   68.1757   62.2074 C.3         1 HUX       0.0005
     14 C12         5.6976   68.6436   63.4411 C.3         1 HUX      -0.0333
     15 C13         3.4720   68.7241   62.2284 C.ar        1 HUX       0.0103
     16 C14         2.6898   68.8384   61.0471 C.ar        1 HUX       0.0669
     17 C15         1.3635   69.3439   61.1117 C.ar        1 HUX       0.0195
     18 C16         0.5282   69.5044   59.9799 C.ar        1 HUX      -0.0525
     19 C17        -0.7395   70.0986   60.0924 C.ar        1 HUX      -0.0494
     20 C18         4.2916   64.5537   63.5763 C.3         1 HUX      -0.0310
     21 CL1        -2.7827   71.1474   61.4966 Cl          1 HUX      -0.0699
     22 H1          4.1310   68.1648   59.7941 H           1 HUX       0.1779
     23 H2          2.6797   68.5253   59.0563 H           1 HUX       0.1779
     24 H3         -0.7966   70.5785   63.4103 H           1 HUX       0.0596
     25 H4          2.9062   68.5083   65.5041 H           1 HUX       0.0470
     26 H5          3.7860   69.9856   65.1286 H           1 HUX       0.0470
     27 H6          5.5082   68.3745   65.5793 H           1 HUX       0.0401
     28 H7          4.3418   66.2997   65.4966 H           1 HUX       0.0247
     29 H8          4.1248   66.2619   61.4763 H           1 HUX       0.0431
     30 H9          5.8402   66.2529   61.8613 H           1 HUX       0.0431
     31 H10         5.0710   62.6671   64.3312 H           1 HUX       0.0251
     32 H11         5.3774   64.0409   65.4046 H           1 HUX       0.0251
     33 H12         6.3282   63.8421   63.9149 H           1 HUX       0.0251
     34 H13         5.4044   68.5393   61.3217 H           1 HUX       0.0444
     35 H14         6.7016   68.2073   63.4287 H           1 HUX       0.0305
     36 H15         5.8100   69.7331   63.4379 H           1 HUX       0.0305
     37 H16         0.8361   69.2130   59.0519 H           1 HUX       0.0636
     38 H17        -1.2934   70.2549   59.2478 H           1 HUX       0.0590
     39 H18         4.2290   64.1261   62.5726 H           1 HUX       0.0408
     40 H19         3.3099   64.4161   64.0399 H           1 HUX       0.0408
@<TRIPOS>BOND
     1     1     5  ar
     2     1     6  ar
     3     6    15  ar
     4     6     7   1
     5     7     8   1
     6     8    14   1
     7     8     9   1
     8     9    10   2
     9    10    20   1
    10    10    11   1
    11    11    13   1
    12    13    15   1
    13    13    14   1
    14    15    16  ar
    15    16     2   1
    16    16    17  ar
    17    17    18  ar
    18    17     5  ar
    19     5     4  ar
    20     4     3  ar
    21     3    19  ar
    22    18    19  ar
    23    20    12   1
    24     3    21   1
    25     2    22   1
    26     2    23   1
    27     4    24   1
    28     7    25   1
    29     7    26   1
    30     8    27   1
    31     9    28   1
    32    11    29   1
    33    11    30   1
    34    12    31   1
    35    12    32   1
    36    12    33   1
    37    13    34   1
    38    14    35   1
    39    14    36   1
    40    18    37   1
    41    19    38   1
    42    20    39   1
    43    20    40   1
@<TRIPOS>SUBSTRUCTURE
     1  HUX      3

