@<TRIPOS>MOLECULE
1e66_ligand_047
    40    43
SMALL
GAST_HUCK
****
This file was generated by PARSER (from files_GN.cpp)

@<TRIPOS>ATOM
      1 N1          4.1313   60.2334   73.9338 N.ar        1 HUX      -0.3279
      2 N2          0.1072   60.2543   74.8119 N.pl3       1 HUX      -0.3283
      3 C1          3.9951   57.0765   75.7663 C.ar        1 HUX       0.0385
      4 C2          4.4930   58.1752   75.0453 C.ar        1 HUX      -0.0382
      5 C3          3.6250   59.2011   74.6400 C.ar        1 HUX       0.0183
      6 C4          3.3843   61.2706   73.4917 C.ar        1 HUX       0.0124
      7 C5          4.1118   62.3370   72.7598 C.3         1 HUX      -0.0021
      8 C6          3.1740   63.4228   72.1421 C.3         1 HUX      -0.0218
      9 C7          2.6256   62.9404   70.8755 C.2         1 HUX      -0.1032
     10 C8          1.4424   62.2985   70.7568 C.2         1 HUX      -0.0790
     11 C9          0.5270   62.2098   71.9143 C.3         1 HUX      -0.0183
     12 C10         1.9587   61.4969   68.3202 C.3         1 HUX      -0.0568
     13 C11         1.1820   62.5004   73.3067 C.3         1 HUX       0.0005
     14 C12         2.0559   63.7736   73.1625 C.3         1 HUX      -0.0333
     15 C13         1.9918   61.3257   73.7874 C.ar        1 HUX       0.0103
     16 C14         1.4235   60.2455   74.5236 C.ar        1 HUX       0.0669
     17 C15         2.2380   59.1643   74.9577 C.ar        1 HUX       0.0195
     18 C16         1.7591   58.0504   75.6897 C.ar        1 HUX      -0.0525
     19 C17         2.6264   57.0144   76.0870 C.ar        1 HUX      -0.0494
     20 C18         0.9600   61.7690   69.4778 C.3         1 HUX      -0.0310
     21 CL1         5.0557   55.8419   76.2329 Cl          1 HUX      -0.0699
     22 H1         -0.4584   60.9830   74.5144 H           1 HUX       0.1779
     23 H2         -0.2882   59.5345   75.3248 H           1 HUX       0.1779
     24 H3          5.4903   58.2254   74.8129 H           1 HUX       0.0596
     25 H4          4.7308   61.8872   71.9759 H           1 HUX       0.0470
     26 H5          4.7923   62.8133   73.4677 H           1 HUX       0.0470
     27 H6          3.7569   64.3269   71.9351 H           1 HUX       0.0401
     28 H7          3.2171   63.0393   70.0808 H           1 HUX       0.0247
     29 H8         -0.2762   62.9333   71.7513 H           1 HUX       0.0431
     30 H9          0.0570   61.2240   71.9533 H           1 HUX       0.0431
     31 H10         1.4582   60.9619   67.5186 H           1 HUX       0.0251
     32 H11         2.7911   60.8811   68.6735 H           1 HUX       0.0251
     33 H12         2.3527   62.4294   67.9166 H           1 HUX       0.0251
     34 H13         0.3973   62.7360   74.0317 H           1 HUX       0.0444
     35 H14         1.4565   64.6149   72.8000 H           1 HUX       0.0305
     36 H15         2.4822   64.0568   74.1309 H           1 HUX       0.0305
     37 H16         0.7735   57.9722   75.9442 H           1 HUX       0.0636
     38 H17         2.2587   56.2174   76.6105 H           1 HUX       0.0590
     39 H18         0.1779   62.4333   69.1004 H           1 HUX       0.0408
     40 H19         0.5040   60.8029   69.6869 H           1 HUX       0.0408
@<TRIPOS>BOND
     1     1     5  ar
     2     1     6  ar
     3     6    15  ar
     4     6     7   1
     5     7     8   1
     6     8    14   1
     7     8     9   1
     8     9    10   2
     9    10    20   1
    10    10    11   1
    11    11    13   1
    12    13    15   1
    13    13    14   1
    14    15    16  ar
    15    16     2   1
    16    16    17  ar
    17    17    18  ar
    18    17     5  ar
    19     5     4  ar
    20     4     3  ar
    21     3    19  ar
    22    18    19  ar
    23    20    12   1
    24     3    21   1
    25     2    22   1
    26     2    23   1
    27     4    24   1
    28     7    25   1
    29     7    26   1
    30     8    27   1
    31     9    28   1
    32    11    29   1
    33    11    30   1
    34    12    31   1
    35    12    32   1
    36    12    33   1
    37    13    34   1
    38    14    35   1
    39    14    36   1
    40    18    37   1
    41    19    38   1
    42    20    39   1
    43    20    40   1
@<TRIPOS>SUBSTRUCTURE
     1  HUX      3

