@<TRIPOS>MOLECULE
1e66_ligand_043
    40    43
SMALL
GAST_HUCK
****
This file was generated by PARSER (from files_GN.cpp)

@<TRIPOS>ATOM
      1 N1          1.5538   66.6537   63.3807 N.ar        1 HUX      -0.3279
      2 N2          5.5159   67.4464   62.6092 N.pl3       1 HUX      -0.3283
      3 C1          1.0768   69.5383   61.1860 C.ar        1 HUX       0.0385
      4 C2          0.7949   68.4508   62.0266 C.ar        1 HUX      -0.0382
      5 C3          1.8513   67.7035   62.5848 C.ar        1 HUX       0.0183
      6 C4          2.4854   65.8581   63.9488 C.ar        1 HUX       0.0124
      7 C5          1.9937   64.7417   64.7957 C.3         1 HUX      -0.0021
      8 C6          3.1138   63.7782   65.2994 C.3         1 HUX      -0.0218
      9 C7          3.4768   62.7988   64.2678 C.2         1 HUX      -0.1032
     10 C8          4.5141   62.9454   63.4149 C.2         1 HUX      -0.0790
     11 C9          5.3834   64.1318   63.4869 C.3         1 HUX      -0.0183
     12 C10         6.2591   61.4307   62.3471 C.3         1 HUX      -0.0568
     13 C11         4.8963   65.2772   64.4345 C.3         1 HUX       0.0005
     14 C12         4.3361   64.6245   65.7301 C.3         1 HUX      -0.0333
     15 C13         3.8662   66.1380   63.7552 C.ar        1 HUX       0.0103
     16 C14         4.2176   67.2128   62.8907 C.ar        1 HUX       0.0669
     17 C15         3.2052   68.0220   62.3058 C.ar        1 HUX       0.0195
     18 C16         3.4705   69.1323   61.4707 C.ar        1 HUX      -0.0525
     19 C17         2.4150   69.8802   60.9178 C.ar        1 HUX      -0.0494
     20 C18         4.7942   61.9186   62.3997 C.3         1 HUX      -0.0310
     21 CL1        -0.1899   70.4229   60.4971 Cl          1 HUX      -0.0699
     22 H1          6.2050   66.8809   62.9890 H           1 HUX       0.1779
     23 H2          5.7719   68.1450   61.9869 H           1 HUX       0.1779
     24 H3         -0.1766   68.2006   62.2298 H           1 HUX       0.0596
     25 H4          1.2362   64.1781   64.2461 H           1 HUX       0.0470
     26 H5          1.5026   65.1925   65.6599 H           1 HUX       0.0470
     27 H6          2.7570   63.2268   66.1771 H           1 HUX       0.0401
     28 H7          2.8715   62.0165   64.1754 H           1 HUX       0.0247
     29 H8          5.5248   64.5438   62.4858 H           1 HUX       0.0431
     30 H9          6.3678   63.8109   63.8424 H           1 HUX       0.0431
     31 H10         6.3318   60.5686   61.6838 H           1 HUX       0.0251
     32 H11         6.5887   61.1357   63.3426 H           1 HUX       0.0251
     33 H12         6.9174   62.2137   61.9656 H           1 HUX       0.0251
     34 H13         5.7459   65.9009   64.7332 H           1 HUX       0.0444
     35 H14         4.0225   65.3857   66.4480 H           1 HUX       0.0305
     36 H15         5.0952   63.9996   66.2078 H           1 HUX       0.0305
     37 H16         4.4289   69.4136   61.2514 H           1 HUX       0.0636
     38 H17         2.6323   70.6726   60.3134 H           1 HUX       0.0590
     39 H18         4.5296   62.3153   61.4193 H           1 HUX       0.0408
     40 H19         4.1768   61.0287   62.5470 H           1 HUX       0.0408
@<TRIPOS>BOND
     1     1     5  ar
     2     1     6  ar
     3     6    15  ar
     4     6     7   1
     5     7     8   1
     6     8    14   1
     7     8     9   1
     8     9    10   2
     9    10    20   1
    10    10    11   1
    11    11    13   1
    12    13    15   1
    13    13    14   1
    14    15    16  ar
    15    16     2   1
    16    16    17  ar
    17    17    18  ar
    18    17     5  ar
    19     5     4  ar
    20     4     3  ar
    21     3    19  ar
    22    18    19  ar
    23    20    12   1
    24     3    21   1
    25     2    22   1
    26     2    23   1
    27     4    24   1
    28     7    25   1
    29     7    26   1
    30     8    27   1
    31     9    28   1
    32    11    29   1
    33    11    30   1
    34    12    31   1
    35    12    32   1
    36    12    33   1
    37    13    34   1
    38    14    35   1
    39    14    36   1
    40    18    37   1
    41    19    38   1
    42    20    39   1
    43    20    40   1
@<TRIPOS>SUBSTRUCTURE
     1  HUX      3

