@<TRIPOS>MOLECULE
1e66_ligand_021
    40    43
SMALL
GAST_HUCK
****
This file was generated by PARSER (from files_GN.cpp)

@<TRIPOS>ATOM
      1 N1          0.2090   60.1085   72.3773 N.ar        1 HUX      -0.3279
      2 N2          2.3385   61.2319   75.7206 N.pl3       1 HUX      -0.3283
      3 C1         -2.5981   61.3138   74.4028 C.ar        1 HUX       0.0385
      4 C2         -1.8697   60.7773   73.3262 C.ar        1 HUX      -0.0382
      5 C3         -0.4723   60.6259   73.4259 C.ar        1 HUX       0.0183
      6 C4          1.5523   59.9354   72.3686 C.ar        1 HUX       0.0124
      7 C5          2.1525   59.3478   71.1395 C.3         1 HUX      -0.0021
      8 C6          3.7102   59.4087   71.1065 C.3         1 HUX      -0.0218
      9 C7          4.1639   60.7526   70.7311 C.2         1 HUX      -0.1032
     10 C8          4.5047   61.7125   71.6225 C.2         1 HUX      -0.0790
     11 C9          4.5284   61.4314   73.0695 C.3         1 HUX      -0.0183
     12 C10         3.6715   64.0013   71.0798 C.3         1 HUX      -0.0568
     13 C11         3.8160   60.1043   73.4944 C.3         1 HUX       0.0005
     14 C12         4.2516   58.9902   72.5014 C.3         1 HUX      -0.0333
     15 C13         2.3196   60.2849   73.5163 C.ar        1 HUX       0.0103
     16 C14         1.6368   60.8463   74.6319 C.ar        1 HUX       0.0669
     17 C15         0.2250   61.0147   74.6017 C.ar        1 HUX       0.0195
     18 C16        -0.5296   61.5528   75.6752 C.ar        1 HUX      -0.0525
     19 C17        -1.9251   61.7004   75.5771 C.ar        1 HUX      -0.0494
     20 C18         4.8892   63.0493   71.1597 C.3         1 HUX      -0.0310
     21 CL1        -4.2777   61.4866   74.2935 Cl          1 HUX      -0.0699
     22 H1          3.3033   61.1386   75.7414 H           1 HUX       0.1779
     23 H2          1.8884   61.6208   76.4845 H           1 HUX       0.1779
     24 H3         -2.3558   60.4971   72.4691 H           1 HUX       0.0596
     25 H4          1.7462   59.8554   70.2592 H           1 HUX       0.0470
     26 H5          1.8369   58.3021   71.0849 H           1 HUX       0.0470
     27 H6          4.0807   58.6964   70.3629 H           1 HUX       0.0401
     28 H7          4.1333   60.9804   69.7622 H           1 HUX       0.0247
     29 H8          5.5765   61.3778   73.3776 H           1 HUX       0.0431
     30 H9          4.0806   62.2655   73.6171 H           1 HUX       0.0431
     31 H10         3.9939   64.9831   70.7295 H           1 HUX       0.0251
     32 H11         3.2070   64.1198   72.0614 H           1 HUX       0.0251
     33 H12         2.9254   63.6118   70.3841 H           1 HUX       0.0251
     34 H13         4.1690   59.8030   74.4848 H           1 HUX       0.0444
     35 H14         5.3412   58.9007   72.4765 H           1 HUX       0.0305
     36 H15         3.8427   58.0208   72.8047 H           1 HUX       0.0305
     37 H16        -0.0778   61.8434   76.5436 H           1 HUX       0.0636
     38 H17        -2.4478   62.0898   76.3656 H           1 HUX       0.0590
     39 H18         5.3599   63.0029   70.1720 H           1 HUX       0.0408
     40 H19         5.6340   63.4816   71.8339 H           1 HUX       0.0408
@<TRIPOS>BOND
     1     1     5  ar
     2     1     6  ar
     3     6    15  ar
     4     6     7   1
     5     7     8   1
     6     8    14   1
     7     8     9   1
     8     9    10   2
     9    10    20   1
    10    10    11   1
    11    11    13   1
    12    13    15   1
    13    13    14   1
    14    15    16  ar
    15    16     2   1
    16    16    17  ar
    17    17    18  ar
    18    17     5  ar
    19     5     4  ar
    20     4     3  ar
    21     3    19  ar
    22    18    19  ar
    23    20    12   1
    24     3    21   1
    25     2    22   1
    26     2    23   1
    27     4    24   1
    28     7    25   1
    29     7    26   1
    30     8    27   1
    31     9    28   1
    32    11    29   1
    33    11    30   1
    34    12    31   1
    35    12    32   1
    36    12    33   1
    37    13    34   1
    38    14    35   1
    39    14    36   1
    40    18    37   1
    41    19    38   1
    42    20    39   1
    43    20    40   1
@<TRIPOS>SUBSTRUCTURE
     1  HUX      3

