@<TRIPOS>MOLECULE
1e66_ligand_052
    40    43
SMALL
GAST_HUCK
****
This file was generated by PARSER (from files_GN.cpp)

@<TRIPOS>ATOM
      1 N1         -0.8527   66.7480   67.4653 N.ar        1 HUX      -0.3279
      2 N2         -1.4421   70.8267   67.3832 N.pl3       1 HUX      -0.3283
      3 C1         -4.1212   66.7456   65.8559 C.ar        1 HUX       0.0385
      4 C2         -2.9449   66.2924   66.4656 C.ar        1 HUX      -0.0382
      5 C3         -2.0091   67.2164   66.9614 C.ar        1 HUX       0.0183
      6 C4          0.1284   67.5441   67.9374 C.ar        1 HUX       0.0124
      7 C5          1.3560   66.8733   68.4167 C.3         1 HUX      -0.0021
      8 C6          2.5068   67.8580   68.7532 C.3         1 HUX      -0.0218
      9 C7          3.1984   68.2634   67.5259 C.2         1 HUX      -0.1032
     10 C8          2.9546   69.4136   66.8623 C.2         1 HUX      -0.0790
     11 C9          1.9542   70.3746   67.3732 C.3         1 HUX      -0.0183
     12 C10         2.9055   69.4606   64.3548 C.3         1 HUX      -0.0568
     13 C11         1.0332   69.8405   68.5184 C.3         1 HUX       0.0005
     14 C12         1.9337   69.0718   69.5214 C.3         1 HUX      -0.0333
     15 C13        -0.0568   68.9589   67.9653 C.ar        1 HUX       0.0103
     16 C14        -1.2526   69.4895   67.4088 C.ar        1 HUX       0.0669
     17 C15        -2.2457   68.6201   66.8883 C.ar        1 HUX       0.0195
     18 C16        -3.4516   69.0522   66.2830 C.ar        1 HUX      -0.0525
     19 C17        -4.3792   68.1234   65.7665 C.ar        1 HUX      -0.0494
     20 C18         3.7040   69.7444   65.6478 C.3         1 HUX      -0.0310
     21 CL1        -5.1906   65.6098   65.1921 Cl          1 HUX      -0.0699
     22 H1         -0.7716   71.4369   67.7357 H           1 HUX       0.1779
     23 H2         -2.2666   71.1857   67.0321 H           1 HUX       0.1779
     24 H3         -2.7539   65.2874   66.5299 H           1 HUX       0.0596
     25 H4          1.7052   66.1667   67.6592 H           1 HUX       0.0470
     26 H5          1.0977   66.2977   69.3103 H           1 HUX       0.0470
     27 H6          3.2062   67.3584   69.4257 H           1 HUX       0.0401
     28 H7          3.8056   67.6001   67.1033 H           1 HUX       0.0247
     29 H8          1.3193   70.7166   66.5518 H           1 HUX       0.0431
     30 H9          2.5061   71.2437   67.7561 H           1 HUX       0.0431
     31 H10         3.5251   69.6981   63.4881 H           1 HUX       0.0251
     32 H11         2.0028   70.0637   64.3155 H           1 HUX       0.0251
     33 H12         2.6303   68.4071   64.2980 H           1 HUX       0.0251
     34 H13         0.5927   70.6896   69.0550 H           1 HUX       0.0444
     35 H14         2.7489   69.7111   69.8749 H           1 HUX       0.0305
     36 H15         1.3576   68.7236   70.3840 H           1 HUX       0.0305
     37 H16        -3.6666   70.0463   66.1890 H           1 HUX       0.0636
     38 H17        -5.2382   68.4595   65.3212 H           1 HUX       0.0590
     39 H18         4.6386   69.1780   65.5902 H           1 HUX       0.0408
     40 H19         3.9929   70.7966   65.6809 H           1 HUX       0.0408
@<TRIPOS>BOND
     1     1     5  ar
     2     1     6  ar
     3     6    15  ar
     4     6     7   1
     5     7     8   1
     6     8    14   1
     7     8     9   1
     8     9    10   2
     9    10    20   1
    10    10    11   1
    11    11    13   1
    12    13    15   1
    13    13    14   1
    14    15    16  ar
    15    16     2   1
    16    16    17  ar
    17    17    18  ar
    18    17     5  ar
    19     5     4  ar
    20     4     3  ar
    21     3    19  ar
    22    18    19  ar
    23    20    12   1
    24     3    21   1
    25     2    22   1
    26     2    23   1
    27     4    24   1
    28     7    25   1
    29     7    26   1
    30     8    27   1
    31     9    28   1
    32    11    29   1
    33    11    30   1
    34    12    31   1
    35    12    32   1
    36    12    33   1
    37    13    34   1
    38    14    35   1
    39    14    36   1
    40    18    37   1
    41    19    38   1
    42    20    39   1
    43    20    40   1
@<TRIPOS>SUBSTRUCTURE
     1  HUX      3

