@<TRIPOS>MOLECULE
1e66_ligand_046
    40    43
SMALL
GAST_HUCK
****
This file was generated by PARSER (from files_GN.cpp)

@<TRIPOS>ATOM
      1 N1          3.0466   62.3396   67.1211 N.ar        1 HUX      -0.3279
      2 N2          2.2567   65.6655   69.4192 N.pl3       1 HUX      -0.3283
      3 C1          3.5837   64.8847   64.5390 C.ar        1 HUX       0.0385
      4 C2          3.4864   63.6312   65.1696 C.ar        1 HUX      -0.0382
      5 C3          3.1452   63.5544   66.5342 C.ar        1 HUX       0.0183
      6 C4          2.6960   62.1556   68.4164 C.ar        1 HUX       0.0124
      7 C5          2.6115   60.7520   68.9006 C.3         1 HUX      -0.0021
      8 C6          2.3793   60.6228   70.4372 C.3         1 HUX      -0.0218
      9 C7          3.6468   60.7872   71.1465 C.2         1 HUX      -0.1032
     10 C8          4.1300   61.9700   71.5986 C.2         1 HUX      -0.0790
     11 C9          3.2630   63.1651   71.5940 C.3         1 HUX      -0.0183
     12 C10         6.4809   60.9474   72.0154 C.3         1 HUX      -0.0568
     13 C11         1.9998   63.0660   70.6727 C.3         1 HUX       0.0005
     14 C12         1.3389   61.6750   70.9003 C.3         1 HUX      -0.0333
     15 C13         2.3917   63.2805   69.2328 C.ar        1 HUX       0.0103
     16 C14         2.5115   64.5779   68.6596 C.ar        1 HUX       0.0669
     17 C15         2.8721   64.7268   67.2910 C.ar        1 HUX       0.0195
     18 C16         2.9448   65.9759   66.6251 C.ar        1 HUX      -0.0525
     19 C17         3.3153   66.0553   65.2703 C.ar        1 HUX      -0.0494
     20 C18         5.4468   62.0816   72.2487 C.3         1 HUX      -0.0310
     21 CL1         4.0116   64.9890   62.9058 Cl          1 HUX      -0.0699
     22 H1          2.0167   65.5663   70.3529 H           1 HUX       0.1779
     23 H2          2.3084   66.5541   69.0397 H           1 HUX       0.1779
     24 H3          3.6567   62.7752   64.6355 H           1 HUX       0.0596
     25 H4          3.5266   60.2196   68.6211 H           1 HUX       0.0470
     26 H5          1.7855   60.2689   68.3729 H           1 HUX       0.0470
     27 H6          1.9814   59.6266   70.6544 H           1 HUX       0.0401
     28 H7          4.2040   59.9695   71.2143 H           1 HUX       0.0247
     29 H8          3.8347   64.0525   71.3041 H           1 HUX       0.0431
     30 H9          2.9253   63.3295   72.6217 H           1 HUX       0.0431
     31 H10         7.4452   61.2117   72.4479 H           1 HUX       0.0251
     32 H11         6.6202   60.7834   70.9416 H           1 HUX       0.0251
     33 H12         6.1465   60.0184   72.4808 H           1 HUX       0.0251
     34 H13         1.2593   63.8161   70.9747 H           1 HUX       0.0444
     35 H14         1.0943   61.5327   71.9597 H           1 HUX       0.0305
     36 H15         0.4109   61.5869   70.3252 H           1 HUX       0.0305
     37 H16         2.7320   66.8471   67.1144 H           1 HUX       0.0636
     38 H17         3.3835   66.9719   64.8200 H           1 HUX       0.0590
     39 H18         5.2795   62.1789   73.3251 H           1 HUX       0.0408
     40 H19         5.9311   63.0043   71.9170 H           1 HUX       0.0408
@<TRIPOS>BOND
     1     1     5  ar
     2     1     6  ar
     3     6    15  ar
     4     6     7   1
     5     7     8   1
     6     8    14   1
     7     8     9   1
     8     9    10   2
     9    10    20   1
    10    10    11   1
    11    11    13   1
    12    13    15   1
    13    13    14   1
    14    15    16  ar
    15    16     2   1
    16    16    17  ar
    17    17    18  ar
    18    17     5  ar
    19     5     4  ar
    20     4     3  ar
    21     3    19  ar
    22    18    19  ar
    23    20    12   1
    24     3    21   1
    25     2    22   1
    26     2    23   1
    27     4    24   1
    28     7    25   1
    29     7    26   1
    30     8    27   1
    31     9    28   1
    32    11    29   1
    33    11    30   1
    34    12    31   1
    35    12    32   1
    36    12    33   1
    37    13    34   1
    38    14    35   1
    39    14    36   1
    40    18    37   1
    41    19    38   1
    42    20    39   1
    43    20    40   1
@<TRIPOS>SUBSTRUCTURE
     1  HUX      3

