@<TRIPOS>MOLECULE
1e66_ligand_009
    40    43
SMALL
GAST_HUCK
****
This file was generated by PARSER (from files_GN.cpp)

@<TRIPOS>ATOM
      1 N1          3.7473   68.8583   66.1539 N.ar        1 HUX      -0.3279
      2 N2          6.9599   71.2898   65.3229 N.pl3       1 HUX      -0.3283
      3 C1          4.6449   67.4471   62.8897 C.ar        1 HUX       0.0385
      4 C2          3.9721   67.6561   64.1097 C.ar        1 HUX      -0.0382
      5 C3          4.4000   68.6758   64.9822 C.ar        1 HUX       0.0183
      6 C4          4.0883   69.8007   67.0665 C.ar        1 HUX       0.0124
      7 C5          3.2690   69.8832   68.3053 C.3         1 HUX      -0.0021
      8 C6          3.8661   70.8284   69.3938 C.3         1 HUX      -0.0218
      9 C7          4.9522   70.1755   70.1268 C.2         1 HUX      -0.1032
     10 C8          6.2645   70.3347   69.8443 C.2         1 HUX      -0.0790
     11 C9          6.7053   71.2083   68.7457 C.3         1 HUX      -0.0183
     12 C10         7.4436   70.4589   72.0484 C.3         1 HUX      -0.0568
     13 C11         5.5631   71.7257   67.8137 C.3         1 HUX       0.0005
     14 C12         4.3577   72.1313   68.7076 C.3         1 HUX      -0.0333
     15 C13         5.1741   70.6826   66.7990 C.ar        1 HUX       0.0103
     16 C14         5.8947   70.5048   65.5836 C.ar        1 HUX       0.0669
     17 C15         5.5080   69.5013   64.6536 C.ar        1 HUX       0.0195
     18 C16         6.1618   69.2781   63.4153 C.ar        1 HUX      -0.0525
     19 C17         5.7393   68.2582   62.5435 C.ar        1 HUX      -0.0494
     20 C18         7.2737   69.7151   70.7056 C.3         1 HUX      -0.0310
     21 CL1         4.1451   66.2145   61.8461 Cl          1 HUX      -0.0699
     22 H1          7.2433   71.9531   65.9660 H           1 HUX       0.1779
     23 H2          7.5014   71.1448   64.5327 H           1 HUX       0.1779
     24 H3          3.1784   67.0656   64.3640 H           1 HUX       0.0596
     25 H4          3.1381   68.8814   68.7226 H           1 HUX       0.0470
     26 H5          2.2778   70.2494   68.0238 H           1 HUX       0.0470
     27 H6          3.0786   71.0998   70.1042 H           1 HUX       0.0401
     28 H7          4.6902   69.5480   70.8465 H           1 HUX       0.0247
     29 H8          7.4568   70.6888   68.1440 H           1 HUX       0.0431
     30 H9          7.1962   72.0769   69.1902 H           1 HUX       0.0431
     31 H10         8.1827   69.9377   72.6574 H           1 HUX       0.0251
     32 H11         6.5048   70.4951   72.6050 H           1 HUX       0.0251
     33 H12         7.7871   71.4789   71.8633 H           1 HUX       0.0251
     34 H13         5.9017   72.6306   67.3048 H           1 HUX       0.0444
     35 H14         4.6655   72.8654   69.4551 H           1 HUX       0.0305
     36 H15         3.5519   72.5779   68.1206 H           1 HUX       0.0305
     37 H16         6.9481   69.8563   63.1288 H           1 HUX       0.0636
     38 H17         6.2314   68.1193   61.6519 H           1 HUX       0.0590
     39 H18         8.2461   69.6910   70.2042 H           1 HUX       0.0408
     40 H19         7.0099   68.6751   70.9193 H           1 HUX       0.0408
@<TRIPOS>BOND
     1     1     5  ar
     2     1     6  ar
     3     6    15  ar
     4     6     7   1
     5     7     8   1
     6     8    14   1
     7     8     9   1
     8     9    10   2
     9    10    20   1
    10    10    11   1
    11    11    13   1
    12    13    15   1
    13    13    14   1
    14    15    16  ar
    15    16     2   1
    16    16    17  ar
    17    17    18  ar
    18    17     5  ar
    19     5     4  ar
    20     4     3  ar
    21     3    19  ar
    22    18    19  ar
    23    20    12   1
    24     3    21   1
    25     2    22   1
    26     2    23   1
    27     4    24   1
    28     7    25   1
    29     7    26   1
    30     8    27   1
    31     9    28   1
    32    11    29   1
    33    11    30   1
    34    12    31   1
    35    12    32   1
    36    12    33   1
    37    13    34   1
    38    14    35   1
    39    14    36   1
    40    18    37   1
    41    19    38   1
    42    20    39   1
    43    20    40   1
@<TRIPOS>SUBSTRUCTURE
     1  HUX      3

