@<TRIPOS>MOLECULE
1e66_ligand_030
    40    43
SMALL
GAST_HUCK
****
This file was generated by PARSER (from files_GN.cpp)

@<TRIPOS>ATOM
      1 N1         -0.2828   61.9565   73.7942 N.ar        1 HUX      -0.3279
      2 N2          3.8138   61.6075   73.5725 N.pl3       1 HUX      -0.3283
      3 C1          0.3830   61.3809   77.3534 C.ar        1 HUX       0.0385
      4 C2         -0.3064   61.6249   76.1519 C.ar        1 HUX      -0.0382
      5 C3          0.4020   61.7226   74.9380 C.ar        1 HUX       0.0183
      6 C4          0.3027   62.0761   72.5802 C.ar        1 HUX       0.0124
      7 C5         -0.5925   62.3098   71.4157 C.3         1 HUX      -0.0021
      8 C6          0.1603   62.6148   70.0817 C.3         1 HUX      -0.0218
      9 C7          0.5535   64.0259   70.0283 C.2         1 HUX      -0.1032
     10 C8          1.7366   64.4985   70.4774 C.2         1 HUX      -0.0790
     11 C9          2.8085   63.5685   70.8811 C.3         1 HUX      -0.0183
     12 C10         0.9263   66.9350   70.6754 C.3         1 HUX      -0.0568
     13 C11         2.3603   62.0876   71.1095 C.3         1 HUX       0.0005
     14 C12         1.3960   61.6807   69.9597 C.3         1 HUX      -0.0333
     15 C13         1.7127   61.9348   72.4614 C.ar        1 HUX       0.0103
     16 C14         2.4690   61.7034   73.6459 C.ar        1 HUX       0.0669
     17 C15         1.8156   61.5828   74.9016 C.ar        1 HUX       0.0195
     18 C16         2.4892   61.3317   76.1244 C.ar        1 HUX      -0.0525
     19 C17         1.7816   61.2336   77.3366 C.ar        1 HUX      -0.0494
     20 C18         2.0642   65.9277   70.3657 C.3         1 HUX      -0.0310
     21 CL1        -0.4681   61.2605   78.8102 Cl          1 HUX      -0.0699
     22 H1          4.2681   61.7019   72.7227 H           1 HUX       0.1779
     23 H2          4.3383   61.4530   74.3705 H           1 HUX       0.1779
     24 H3         -1.3245   61.7332   76.1594 H           1 HUX       0.0596
     25 H4         -1.2818   63.1297   71.6459 H           1 HUX       0.0470
     26 H5         -1.1993   61.4103   71.2827 H           1 HUX       0.0470
     27 H6         -0.5079   62.4106   69.2385 H           1 HUX       0.0401
     28 H7         -0.1288   64.6665   69.6897 H           1 HUX       0.0247
     29 H8          3.2969   63.9357   71.7884 H           1 HUX       0.0431
     30 H9          3.5654   63.5768   70.0906 H           1 HUX       0.0431
     31 H10         1.3368   67.9433   70.7459 H           1 HUX       0.0251
     32 H11         0.4443   66.6906   71.6240 H           1 HUX       0.0251
     33 H12         0.1720   66.9342   69.8823 H           1 HUX       0.0251
     34 H13         3.2307   61.4237   71.0359 H           1 HUX       0.0444
     35 H14         1.8741   61.8095   68.9841 H           1 HUX       0.0305
     36 H15         1.1083   60.6304   70.0576 H           1 HUX       0.0305
     37 H16         3.5035   61.2125   76.1522 H           1 HUX       0.0636
     38 H17         2.2910   61.0534   78.2051 H           1 HUX       0.0590
     39 H18         2.8852   66.1743   71.0437 H           1 HUX       0.0408
     40 H19         2.4262   66.1132   69.3499 H           1 HUX       0.0408
@<TRIPOS>BOND
     1     1     5  ar
     2     1     6  ar
     3     6    15  ar
     4     6     7   1
     5     7     8   1
     6     8    14   1
     7     8     9   1
     8     9    10   2
     9    10    20   1
    10    10    11   1
    11    11    13   1
    12    13    15   1
    13    13    14   1
    14    15    16  ar
    15    16     2   1
    16    16    17  ar
    17    17    18  ar
    18    17     5  ar
    19     5     4  ar
    20     4     3  ar
    21     3    19  ar
    22    18    19  ar
    23    20    12   1
    24     3    21   1
    25     2    22   1
    26     2    23   1
    27     4    24   1
    28     7    25   1
    29     7    26   1
    30     8    27   1
    31     9    28   1
    32    11    29   1
    33    11    30   1
    34    12    31   1
    35    12    32   1
    36    12    33   1
    37    13    34   1
    38    14    35   1
    39    14    36   1
    40    18    37   1
    41    19    38   1
    42    20    39   1
    43    20    40   1
@<TRIPOS>SUBSTRUCTURE
     1  HUX      3

