@<TRIPOS>MOLECULE
1e66_ligand_010
    40    43
SMALL
GAST_HUCK
****
This file was generated by PARSER (from files_GN.cpp)

@<TRIPOS>ATOM
      1 N1          2.5239   66.0161   66.0851 N.ar        1 HUX      -0.3279
      2 N2          4.4637   69.1532   64.2557 N.pl3       1 HUX      -0.3283
      3 C1          4.5682   64.0655   63.7579 C.ar        1 HUX       0.0385
      4 C2          3.6180   64.3893   64.7428 C.ar        1 HUX      -0.0382
      5 C3          3.3978   65.7360   65.0938 C.ar        1 HUX       0.0183
      6 C4          2.2683   67.2677   66.5289 C.ar        1 HUX       0.0124
      7 C5          1.3058   67.4013   67.6530 C.3         1 HUX      -0.0021
      8 C6          1.2953   68.8251   68.2860 C.3         1 HUX      -0.0218
      9 C7          2.4479   69.0323   69.1697 C.2         1 HUX      -0.1032
     10 C8          3.5811   69.6878   68.8075 C.2         1 HUX      -0.0790
     11 C9          3.7194   70.2202   67.4434 C.3         1 HUX      -0.0183
     12 C10         5.9855   70.4603   69.3810 C.3         1 HUX      -0.0568
     13 C11         2.6236   69.7694   66.4249 C.3         1 HUX       0.0005
     14 C12         1.2484   69.8757   67.1416 C.3         1 HUX      -0.0333
     15 C13         2.9104   68.3790   65.9173 C.ar        1 HUX       0.0103
     16 C14         3.8382   68.1252   64.8661 C.ar        1 HUX       0.0669
     17 C15         4.1048   66.7863   64.4499 C.ar        1 HUX       0.0195
     18 C16         5.0366   66.4424   63.4448 C.ar        1 HUX      -0.0525
     19 C17         5.2727   65.0898   63.1075 C.ar        1 HUX      -0.0494
     20 C18         4.5790   70.0017   69.8429 C.3         1 HUX      -0.0310
     21 CL1         4.8702   62.4466   63.3600 Cl          1 HUX      -0.0699
     22 H1          4.2931   70.0681   64.5303 H           1 HUX       0.1779
     23 H2          5.1033   68.9921   63.5457 H           1 HUX       0.1779
     24 H3          3.1060   63.6482   65.2272 H           1 HUX       0.0596
     25 H4          1.5439   66.6637   68.4229 H           1 HUX       0.0470
     26 H5          0.3065   67.1591   67.2758 H           1 HUX       0.0470
     27 H6          0.3864   68.9301   68.8814 H           1 HUX       0.0401
     28 H7          2.3885   68.6409   70.0823 H           1 HUX       0.0247
     29 H8          3.6715   71.3072   67.5265 H           1 HUX       0.0431
     30 H9          4.6963   69.9524   67.0326 H           1 HUX       0.0431
     31 H10         6.6509   70.5286   70.2455 H           1 HUX       0.0251
     32 H11         5.9361   71.4443   68.9006 H           1 HUX       0.0251
     33 H12         6.4072   69.7345   68.6809 H           1 HUX       0.0251
     34 H13         2.5974   70.4642   65.5854 H           1 HUX       0.0444
     35 H14         1.0931   70.8830   67.5501 H           1 HUX       0.0305
     36 H15         0.4304   69.6613   66.4436 H           1 HUX       0.0305
     37 H16         5.5794   67.1561   62.9561 H           1 HUX       0.0636
     38 H17         5.9686   64.8631   62.3958 H           1 HUX       0.0590
     39 H18         4.7164   69.1305   70.4872 H           1 HUX       0.0408
     40 H19         4.1683   70.7910   70.4737 H           1 HUX       0.0408
@<TRIPOS>BOND
     1     1     5  ar
     2     1     6  ar
     3     6    15  ar
     4     6     7   1
     5     7     8   1
     6     8    14   1
     7     8     9   1
     8     9    10   2
     9    10    20   1
    10    10    11   1
    11    11    13   1
    12    13    15   1
    13    13    14   1
    14    15    16  ar
    15    16     2   1
    16    16    17  ar
    17    17    18  ar
    18    17     5  ar
    19     5     4  ar
    20     4     3  ar
    21     3    19  ar
    22    18    19  ar
    23    20    12   1
    24     3    21   1
    25     2    22   1
    26     2    23   1
    27     4    24   1
    28     7    25   1
    29     7    26   1
    30     8    27   1
    31     9    28   1
    32    11    29   1
    33    11    30   1
    34    12    31   1
    35    12    32   1
    36    12    33   1
    37    13    34   1
    38    14    35   1
    39    14    36   1
    40    18    37   1
    41    19    38   1
    42    20    39   1
    43    20    40   1
@<TRIPOS>SUBSTRUCTURE
     1  HUX      3

