@<TRIPOS>MOLECULE
1e66_ligand_033
    40    43
SMALL
GAST_HUCK
****
This file was generated by PARSER (from files_GN.cpp)

@<TRIPOS>ATOM
      1 N1          1.5222   61.5778   74.5203 N.ar        1 HUX      -0.3279
      2 N2          2.1814   59.8700   70.8304 N.pl3       1 HUX      -0.3283
      3 C1          3.7485   58.8745   75.5931 C.ar        1 HUX       0.0385
      4 C2          2.9027   59.9964   75.6383 C.ar        1 HUX      -0.0382
      5 C3          2.3223   60.4901   74.4537 C.ar        1 HUX       0.0183
      6 C4          0.9240   62.1352   73.4406 C.ar        1 HUX       0.0124
      7 C5          0.0727   63.3294   73.6831 C.3         1 HUX      -0.0021
      8 C6         -0.3908   64.0391   72.3770 C.3         1 HUX      -0.0218
      9 C7          0.6853   64.8695   71.8395 C.2         1 HUX      -0.1032
     10 C8          1.4971   64.5012   70.8213 C.2         1 HUX      -0.0790
     11 C9          1.3810   63.1631   70.2137 C.3         1 HUX      -0.0183
     12 C10         1.8620   66.8087   69.8491 C.3         1 HUX      -0.0568
     13 C11         0.4236   62.1738   70.9572 C.3         1 HUX       0.0005
     14 C12        -0.8547   62.9642   71.3551 C.3         1 HUX      -0.0333
     15 C13         1.1020   61.5542   72.1534 C.ar        1 HUX       0.0103
     16 C14         1.9548   60.4204   72.0424 C.ar        1 HUX       0.0669
     17 C15         2.5740   59.8708   73.1995 C.ar        1 HUX       0.0195
     18 C16         3.4309   58.7421   73.1767 C.ar        1 HUX      -0.0525
     19 C17         4.0110   58.2491   74.3602 C.ar        1 HUX      -0.0494
     20 C18         2.4759   65.4514   70.2801 C.3         1 HUX      -0.0310
     21 CL1         4.4432   58.2768   77.0159 Cl          1 HUX      -0.0699
     22 H1          1.7753   60.2485   70.0356 H           1 HUX       0.1779
     23 H2          2.7606   59.0991   70.7396 H           1 HUX       0.1779
     24 H3          2.7089   60.4560   76.5327 H           1 HUX       0.0596
     25 H4          0.6127   64.0402   74.3171 H           1 HUX       0.0470
     26 H5         -0.8106   63.0036   74.2385 H           1 HUX       0.0470
     27 H6         -1.2341   64.6940   72.6049 H           1 HUX       0.0401
     28 H7          0.8102   65.7569   72.2680 H           1 HUX       0.0247
     29 H8          2.3741   62.7103   70.1342 H           1 HUX       0.0431
     30 H9          1.0077   63.2939   69.1962 H           1 HUX       0.0431
     31 H10         2.6270   67.4490   69.4125 H           1 HUX       0.0251
     32 H11         1.4380   67.3412   70.7025 H           1 HUX       0.0251
     33 H12         1.0746   66.6464   69.1110 H           1 HUX       0.0251
     34 H13         0.1075   61.3876   70.2686 H           1 HUX       0.0444
     35 H14        -1.3037   63.4377   70.4753 H           1 HUX       0.0305
     36 H15        -1.6054   62.3016   71.7969 H           1 HUX       0.0305
     37 H16         3.6462   58.2596   72.3028 H           1 HUX       0.0636
     38 H17         4.6165   57.4278   74.3098 H           1 HUX       0.0590
     39 H18         2.9781   65.0281   69.4050 H           1 HUX       0.0408
     40 H19         3.2479   65.6299   71.0331 H           1 HUX       0.0408
@<TRIPOS>BOND
     1     1     5  ar
     2     1     6  ar
     3     6    15  ar
     4     6     7   1
     5     7     8   1
     6     8    14   1
     7     8     9   1
     8     9    10   2
     9    10    20   1
    10    10    11   1
    11    11    13   1
    12    13    15   1
    13    13    14   1
    14    15    16  ar
    15    16     2   1
    16    16    17  ar
    17    17    18  ar
    18    17     5  ar
    19     5     4  ar
    20     4     3  ar
    21     3    19  ar
    22    18    19  ar
    23    20    12   1
    24     3    21   1
    25     2    22   1
    26     2    23   1
    27     4    24   1
    28     7    25   1
    29     7    26   1
    30     8    27   1
    31     9    28   1
    32    11    29   1
    33    11    30   1
    34    12    31   1
    35    12    32   1
    36    12    33   1
    37    13    34   1
    38    14    35   1
    39    14    36   1
    40    18    37   1
    41    19    38   1
    42    20    39   1
    43    20    40   1
@<TRIPOS>SUBSTRUCTURE
     1  HUX      3

