@<TRIPOS>MOLECULE
1e66_ligand_029
    40    43
SMALL
GAST_HUCK
****
This file was generated by PARSER (from files_GN.cpp)

@<TRIPOS>ATOM
      1 N1          5.6302   66.0096   63.2216 N.ar        1 HUX      -0.3279
      2 N2          2.5441   65.9489   65.9435 N.pl3       1 HUX      -0.3283
      3 C1          4.9855   62.4180   63.1592 C.ar        1 HUX       0.0385
      4 C2          5.5961   63.6587   62.9312 C.ar        1 HUX      -0.0382
      5 C3          5.0877   64.8159   63.5448 C.ar        1 HUX       0.0183
      6 C4          5.2095   67.1844   63.7269 C.ar        1 HUX       0.0124
      7 C5          5.9015   68.4042   63.2396 C.3         1 HUX      -0.0021
      8 C6          5.1575   69.7163   63.6318 C.3         1 HUX      -0.0218
      9 C7          3.9943   69.9028   62.7557 C.2         1 HUX      -0.1032
     10 C8          2.7261   69.5708   63.0933 C.2         1 HUX      -0.0790
     11 C9          2.4194   69.0324   64.4301 C.3         1 HUX      -0.0183
     12 C10         1.1413   68.5680   61.4219 C.3         1 HUX      -0.0568
     13 C11         3.6685   68.5291   65.2299 C.3         1 HUX       0.0005
     14 C12         4.7651   69.6274   65.1367 C.3         1 HUX      -0.0333
     15 C13         4.1521   67.2088   64.6838 C.ar        1 HUX       0.0103
     16 C14         3.5505   65.9668   65.0449 C.ar        1 HUX       0.0669
     17 C15         4.0027   64.7543   64.4587 C.ar        1 HUX       0.0195
     18 C16         3.4274   63.4850   64.7090 C.ar        1 HUX      -0.0525
     19 C17         3.8936   62.3366   64.0456 C.ar        1 HUX      -0.0494
     20 C18         1.6140   69.8331   62.1693 C.3         1 HUX      -0.0310
     21 CL1         5.5489   61.0503   62.3310 Cl          1 HUX      -0.0699
     22 H1          2.2204   66.7768   66.3277 H           1 HUX       0.1779
     23 H2          2.1466   65.1133   66.2287 H           1 HUX       0.1779
     24 H3          6.3915   63.7407   62.2909 H           1 HUX       0.0596
     25 H4          6.0128   68.3526   62.1534 H           1 HUX       0.0470
     26 H5          6.9073   68.4121   63.6739 H           1 HUX       0.0470
     27 H6          5.8425   70.5635   63.5021 H           1 HUX       0.0401
     28 H7          4.1842   70.2120   61.8290 H           1 HUX       0.0247
     29 H8          1.9491   69.8389   65.0038 H           1 HUX       0.0431
     30 H9          1.6963   68.2147   64.3463 H           1 HUX       0.0431
     31 H10         0.3608   68.8441   60.7020 H           1 HUX       0.0251
     32 H11         0.7335   67.8259   62.1126 H           1 HUX       0.0251
     33 H12         1.9784   68.1347   60.8743 H           1 HUX       0.0251
     34 H13         3.4089   68.4205   66.2872 H           1 HUX       0.0444
     35 H14         4.3794   70.5879   65.4905 H           1 HUX       0.0305
     36 H15         5.6289   69.3567   65.7543 H           1 HUX       0.0305
     37 H16         2.6418   63.3841   65.3562 H           1 HUX       0.0636
     38 H17         3.4207   61.4462   64.1992 H           1 HUX       0.0590
     39 H18         1.8922   70.5694   61.4076 H           1 HUX       0.0408
     40 H19         0.7710   70.2702   62.7205 H           1 HUX       0.0408
@<TRIPOS>BOND
     1     1     5  ar
     2     1     6  ar
     3     6    15  ar
     4     6     7   1
     5     7     8   1
     6     8    14   1
     7     8     9   1
     8     9    10   2
     9    10    20   1
    10    10    11   1
    11    11    13   1
    12    13    15   1
    13    13    14   1
    14    15    16  ar
    15    16     2   1
    16    16    17  ar
    17    17    18  ar
    18    17     5  ar
    19     5     4  ar
    20     4     3  ar
    21     3    19  ar
    22    18    19  ar
    23    20    12   1
    24     3    21   1
    25     2    22   1
    26     2    23   1
    27     4    24   1
    28     7    25   1
    29     7    26   1
    30     8    27   1
    31     9    28   1
    32    11    29   1
    33    11    30   1
    34    12    31   1
    35    12    32   1
    36    12    33   1
    37    13    34   1
    38    14    35   1
    39    14    36   1
    40    18    37   1
    41    19    38   1
    42    20    39   1
    43    20    40   1
@<TRIPOS>SUBSTRUCTURE
     1  HUX      3

