@<TRIPOS>MOLECULE
1e66_ligand_053
    40    43
SMALL
GAST_HUCK
****
This file was generated by PARSER (from files_GN.cpp)

@<TRIPOS>ATOM
      1 N1          3.6158   69.4769   65.8942 N.ar        1 HUX      -0.3279
      2 N2          0.7461   70.5137   68.6590 N.pl3       1 HUX      -0.3283
      3 C1          5.5983   71.8825   67.8291 C.ar        1 HUX       0.0385
      4 C2          5.2371   70.9400   66.8432 C.ar        1 HUX      -0.0382
      5 C3          3.9406   70.3910   66.8388 C.ar        1 HUX       0.0183
      6 C4          2.3999   68.8838   65.8097 C.ar        1 HUX       0.0124
      7 C5          2.1964   67.9018   64.7093 C.3         1 HUX      -0.0021
      8 C6          0.8543   67.1162   64.7986 C.3         1 HUX      -0.0218
      9 C7          0.9484   66.0283   65.7743 C.2         1 HUX      -0.1032
     10 C8          0.5435   66.1392   67.0638 C.2         1 HUX      -0.0790
     11 C9         -0.1045   67.3583   67.5623 C.3         1 HUX      -0.0183
     12 C10         2.2117   64.8496   68.4618 C.3         1 HUX      -0.0568
     13 C11         0.0123   68.5956   66.6121 C.3         1 HUX       0.0005
     14 C12        -0.2770   68.1170   65.1632 C.3         1 HUX      -0.0333
     15 C13         1.3703   69.2403   66.7274 C.ar        1 HUX       0.0103
     16 C14         1.6860   70.1822   67.7436 C.ar        1 HUX       0.0669
     17 C15         2.9770   70.7709   67.8125 C.ar        1 HUX       0.0195
     18 C16         3.3634   71.7244   68.7922 C.ar        1 HUX      -0.0525
     19 C17         4.6614   72.2720   68.7937 C.ar        1 HUX      -0.0494
     20 C18         0.7387   65.0000   67.9899 C.3         1 HUX      -0.0310
     21 CL1         7.1536   72.5402   67.8411 Cl          1 HUX      -0.0699
     22 H1         -0.1325   70.1074   68.6268 H           1 HUX       0.1779
     23 H2          0.9430   71.1537   69.3592 H           1 HUX       0.1779
     24 H3          5.9186   70.6564   66.1371 H           1 HUX       0.0596
     25 H4          3.0357   67.1999   64.6865 H           1 HUX       0.0470
     26 H5          2.2132   68.4590   63.7663 H           1 HUX       0.0470
     27 H6          0.6321   66.6801   63.8168 H           1 HUX       0.0401
     28 H7          1.3886   65.1912   65.4656 H           1 HUX       0.0247
     29 H8          0.3222   67.6144   68.5348 H           1 HUX       0.0431
     30 H9         -1.1633   67.1438   67.7266 H           1 HUX       0.0431
     31 H10         2.2945   63.9843   69.1253 H           1 HUX       0.0251
     32 H11         2.5248   65.7363   69.0011 H           1 HUX       0.0251
     33 H12         2.8727   64.6902   67.6043 H           1 HUX       0.0251
     34 H13        -0.7612   69.3219   66.8620 H           1 HUX       0.0444
     35 H14        -1.2591   67.6353   65.1023 H           1 HUX       0.0305
     36 H15        -0.2855   68.9642   64.4674 H           1 HUX       0.0305
     37 H16         2.7122   72.0307   69.5094 H           1 HUX       0.0636
     38 H17         4.9108   72.9576   69.5080 H           1 HUX       0.0590
     39 H18         0.4226   64.0657   67.5135 H           1 HUX       0.0408
     40 H19         0.1193   65.1181   68.8943 H           1 HUX       0.0408
@<TRIPOS>BOND
     1     1     5  ar
     2     1     6  ar
     3     6    15  ar
     4     6     7   1
     5     7     8   1
     6     8    14   1
     7     8     9   1
     8     9    10   2
     9    10    20   1
    10    10    11   1
    11    11    13   1
    12    13    15   1
    13    13    14   1
    14    15    16  ar
    15    16     2   1
    16    16    17  ar
    17    17    18  ar
    18    17     5  ar
    19     5     4  ar
    20     4     3  ar
    21     3    19  ar
    22    18    19  ar
    23    20    12   1
    24     3    21   1
    25     2    22   1
    26     2    23   1
    27     4    24   1
    28     7    25   1
    29     7    26   1
    30     8    27   1
    31     9    28   1
    32    11    29   1
    33    11    30   1
    34    12    31   1
    35    12    32   1
    36    12    33   1
    37    13    34   1
    38    14    35   1
    39    14    36   1
    40    18    37   1
    41    19    38   1
    42    20    39   1
    43    20    40   1
@<TRIPOS>SUBSTRUCTURE
     1  HUX      3

