@<TRIPOS>MOLECULE
1e66_ligand_004
    40    43
SMALL
GAST_HUCK
****
This file was generated by PARSER (from files_GN.cpp)

@<TRIPOS>ATOM
      1 N1          1.9628   60.8825   70.1450 N.ar        1 HUX      -0.3279
      2 N2          2.8690   61.9534   74.0229 N.pl3       1 HUX      -0.3283
      3 C1          3.8293   57.8869   71.0854 C.ar        1 HUX       0.0385
      4 C2          3.0936   58.8069   70.3179 C.ar        1 HUX      -0.0382
      5 C3          2.7134   60.0381   70.8835 C.ar        1 HUX       0.0183
      6 C4          1.4786   62.0499   70.6186 C.ar        1 HUX       0.0124
      7 C5          0.6264   62.8539   69.7072 C.3         1 HUX      -0.0021
      8 C6         -0.3912   63.7399   70.4812 C.3         1 HUX      -0.0218
      9 C7         -1.4071   62.8939   71.1268 C.2         1 HUX      -0.1032
     10 C8         -1.3577   62.5050   72.4245 C.2         1 HUX      -0.0790
     11 C9         -0.2905   63.0070   73.3128 C.3         1 HUX      -0.0183
     12 C10        -1.9738   60.2677   73.4373 C.3         1 HUX      -0.0568
     13 C11         0.9572   63.5831   72.5691 C.3         1 HUX       0.0005
     14 C12         0.4148   64.5840   71.5070 C.3         1 HUX      -0.0333
     15 C13         1.7401   62.4423   71.9638 C.ar        1 HUX       0.0103
     16 C14         2.5762   61.6023   72.7511 C.ar        1 HUX       0.0669
     17 C15         3.0624   60.3798   72.2186 C.ar        1 HUX       0.0195
     18 C16         3.8367   59.4518   72.9583 C.ar        1 HUX      -0.0525
     19 C17         4.2115   58.2211   72.3962 C.ar        1 HUX      -0.0494
     20 C18        -2.4318   61.6828   73.0003 C.3         1 HUX      -0.0310
     21 CL1         4.2012   56.3720   70.4354 Cl          1 HUX      -0.0699
     22 H1          2.5275   62.7807   74.3953 H           1 HUX       0.1779
     23 H2          3.4278   61.3872   74.5751 H           1 HUX       0.1779
     24 H3          2.8011   58.5585   69.3687 H           1 HUX       0.0596
     25 H4          0.0958   62.2110   68.9998 H           1 HUX       0.0470
     26 H5          1.2943   63.4906   69.1246 H           1 HUX       0.0470
     27 H6         -0.8843   64.4169   69.7763 H           1 HUX       0.0401
     28 H7         -2.1221   62.5342   70.5361 H           1 HUX       0.0247
     29 H8         -0.7166   63.7873   73.9527 H           1 HUX       0.0431
     30 H9          0.0486   62.2177   73.9839 H           1 HUX       0.0431
     31 H10        -2.8340   59.7036   73.7974 H           1 HUX       0.0251
     32 H11        -1.2452   60.3153   74.2431 H           1 HUX       0.0251
     33 H12        -1.5369   59.7342   72.5928 H           1 HUX       0.0251
     34 H13         1.5838   64.1502   73.2621 H           1 HUX       0.0444
     35 H14        -0.2334   65.3333   71.9727 H           1 HUX       0.0305
     36 H15         1.2388   65.1173   71.0243 H           1 HUX       0.0305
     37 H16         4.1142   59.6440   73.9226 H           1 HUX       0.0636
     38 H17         4.7400   57.5557   72.9590 H           1 HUX       0.0590
     39 H18        -3.2543   61.5409   72.2956 H           1 HUX       0.0408
     40 H19        -2.8501   62.2014   73.8659 H           1 HUX       0.0408
@<TRIPOS>BOND
     1     1     5  ar
     2     1     6  ar
     3     6    15  ar
     4     6     7   1
     5     7     8   1
     6     8    14   1
     7     8     9   1
     8     9    10   2
     9    10    20   1
    10    10    11   1
    11    11    13   1
    12    13    15   1
    13    13    14   1
    14    15    16  ar
    15    16     2   1
    16    16    17  ar
    17    17    18  ar
    18    17     5  ar
    19     5     4  ar
    20     4     3  ar
    21     3    19  ar
    22    18    19  ar
    23    20    12   1
    24     3    21   1
    25     2    22   1
    26     2    23   1
    27     4    24   1
    28     7    25   1
    29     7    26   1
    30     8    27   1
    31     9    28   1
    32    11    29   1
    33    11    30   1
    34    12    31   1
    35    12    32   1
    36    12    33   1
    37    13    34   1
    38    14    35   1
    39    14    36   1
    40    18    37   1
    41    19    38   1
    42    20    39   1
    43    20    40   1
@<TRIPOS>SUBSTRUCTURE
     1  HUX      3

