@<TRIPOS>MOLECULE
1e66_ligand_005
    40    43
SMALL
GAST_HUCK
****
This file was generated by PARSER (from files_GN.cpp)

@<TRIPOS>ATOM
      1 N1          3.9054   68.3719   66.3837 N.ar        1 HUX      -0.3279
      2 N2          5.9306   70.1607   63.2794 N.pl3       1 HUX      -0.3283
      3 C1          5.8039   70.7865   68.3517 C.ar        1 HUX       0.0385
      4 C2          4.8784   69.7878   68.0114 C.ar        1 HUX      -0.0382
      5 C3          4.7172   69.4124   66.6666 C.ar        1 HUX       0.0183
      6 C4          3.7356   67.8714   65.1407 C.ar        1 HUX       0.0124
      7 C5          2.8944   66.6516   65.0302 C.3         1 HUX      -0.0021
      8 C6          2.5791   66.2542   63.5597 C.3         1 HUX      -0.0218
      9 C7          1.5197   67.1165   63.0249 C.2         1 HUX      -0.1032
     10 C8          1.7454   68.2107   62.2619 C.2         1 HUX      -0.0790
     11 C9          3.1144   68.5994   61.8818 C.3         1 HUX      -0.0183
     12 C10         0.0286   69.9435   62.8352 C.3         1 HUX      -0.0568
     13 C11         4.2538   67.8620   62.6618 C.3         1 HUX       0.0005
     14 C12         3.8884   66.3511   62.7240 C.3         1 HUX      -0.0333
     15 C13         4.4317   68.4483   64.0409 C.ar        1 HUX       0.0103
     16 C14         5.2700   69.5718   64.2986 C.ar        1 HUX       0.0669
     17 C15         5.4392   70.0555   65.6253 C.ar        1 HUX       0.0195
     18 C16         6.3153   71.1112   65.9865 C.ar        1 HUX      -0.0525
     19 C17         6.5099   71.4586   67.3375 C.ar        1 HUX      -0.0494
     20 C18         0.6149   68.9992   61.7591 C.3         1 HUX      -0.0310
     21 CL1         6.1040   71.1267   69.9797 Cl          1 HUX      -0.0699
     22 H1          5.8260   69.8362   62.3726 H           1 HUX       0.1779
     23 H2          6.5173   70.9126   63.4455 H           1 HUX       0.1779
     24 H3          4.3538   69.3052   68.7446 H           1 HUX       0.0596
     25 H4          1.9627   66.7916   65.5878 H           1 HUX       0.0470
     26 H5          3.4377   65.8318   65.5101 H           1 HUX       0.0470
     27 H6          2.2312   65.2170   63.5432 H           1 HUX       0.0401
     28 H7          0.5866   66.8970   63.2919 H           1 HUX       0.0247
     29 H8          3.2378   69.6786   62.0135 H           1 HUX       0.0431
     30 H9          3.2299   68.3917   60.8138 H           1 HUX       0.0431
     31 H10        -0.7938   70.5214   62.4094 H           1 HUX       0.0251
     32 H11         0.7938   70.6379   63.1864 H           1 HUX       0.0251
     33 H12        -0.3517   69.3766   63.6877 H           1 HUX       0.0251
     34 H13         5.1883   67.9404   62.0989 H           1 HUX       0.0444
     35 H14         3.7361   65.9480   61.7184 H           1 HUX       0.0305
     36 H15         4.6954   65.7776   63.1916 H           1 HUX       0.0305
     37 H16         6.8542   71.6128   65.2778 H           1 HUX       0.0636
     38 H17         7.1847   72.1854   67.5825 H           1 HUX       0.0590
     39 H18        -0.1792   68.3390   61.3931 H           1 HUX       0.0408
     40 H19         0.9255   69.6101   60.9058 H           1 HUX       0.0408
@<TRIPOS>BOND
     1     1     5  ar
     2     1     6  ar
     3     6    15  ar
     4     6     7   1
     5     7     8   1
     6     8    14   1
     7     8     9   1
     8     9    10   2
     9    10    20   1
    10    10    11   1
    11    11    13   1
    12    13    15   1
    13    13    14   1
    14    15    16  ar
    15    16     2   1
    16    16    17  ar
    17    17    18  ar
    18    17     5  ar
    19     5     4  ar
    20     4     3  ar
    21     3    19  ar
    22    18    19  ar
    23    20    12   1
    24     3    21   1
    25     2    22   1
    26     2    23   1
    27     4    24   1
    28     7    25   1
    29     7    26   1
    30     8    27   1
    31     9    28   1
    32    11    29   1
    33    11    30   1
    34    12    31   1
    35    12    32   1
    36    12    33   1
    37    13    34   1
    38    14    35   1
    39    14    36   1
    40    18    37   1
    41    19    38   1
    42    20    39   1
    43    20    40   1
@<TRIPOS>SUBSTRUCTURE
     1  HUX      3

