@<TRIPOS>MOLECULE
1e66_ligand_034
    40    43
SMALL
GAST_HUCK
****
This file was generated by PARSER (from files_GN.cpp)

@<TRIPOS>ATOM
      1 N1          0.1142   67.4053   64.9723 N.ar        1 HUX      -0.3279
      2 N2          2.6278   70.0168   66.9168 N.pl3       1 HUX      -0.3283
      3 C1         -2.4426   69.4138   66.6368 C.ar        1 HUX       0.0385
      4 C2         -1.8389   68.4297   65.8397 C.ar        1 HUX      -0.0382
      5 C3         -0.4368   68.3620   65.7482 C.ar        1 HUX       0.0183
      6 C4          1.4452   67.2568   64.7932 C.ar        1 HUX       0.0124
      7 C5          1.8830   66.1452   63.9103 C.3         1 HUX      -0.0021
      8 C6          3.4177   66.1107   63.6304 C.3         1 HUX      -0.0218
      9 C7          3.7753   67.0197   62.5392 C.2         1 HUX      -0.1032
     10 C8          4.1589   68.3059   62.7224 C.2         1 HUX      -0.0790
     11 C9          4.3171   68.8641   64.0743 C.3         1 HUX      -0.0183
     12 C10         3.5327   69.3118   60.4822 C.3         1 HUX      -0.0568
     13 C11         3.8234   67.9574   65.2484 C.3         1 HUX       0.0005
     14 C12         4.1846   66.4784   64.9282 C.3         1 HUX      -0.0333
     15 C13         2.3462   68.1258   65.4665 C.ar        1 HUX       0.0103
     16 C14         1.8028   69.1519   66.2909 C.ar        1 HUX       0.0669
     17 C15         0.3948   69.2756   66.4486 C.ar        1 HUX       0.0195
     18 C16        -0.2347   70.2577   67.2543 C.ar        1 HUX      -0.0525
     19 C17        -1.6381   70.3289   67.3417 C.ar        1 HUX      -0.0494
     20 C18         4.6068   69.1094   61.5789 C.3         1 HUX      -0.0310
     21 CL1        -4.1316   69.4619   66.7435 Cl          1 HUX      -0.0699
     22 H1          3.5878   69.9502   66.8027 H           1 HUX       0.1779
     23 H2          2.2693   70.7164   67.4819 H           1 HUX       0.1779
     24 H3         -2.4205   67.7651   65.3241 H           1 HUX       0.0596
     25 H4          1.3358   66.2140   62.9664 H           1 HUX       0.0470
     26 H5          1.5914   65.2038   64.3849 H           1 HUX       0.0470
     27 H6          3.7043   65.0959   63.3303 H           1 HUX       0.0401
     28 H7          3.7292   66.6520   61.6140 H           1 HUX       0.0247
     29 H8          3.8179   69.8380   64.1283 H           1 HUX       0.0431
     30 H9          5.3858   69.0422   64.2206 H           1 HUX       0.0431
     31 H10         3.9120   70.0030   59.7246 H           1 HUX       0.0251
     32 H11         2.6161   69.7249   60.9149 H           1 HUX       0.0251
     33 H12         3.2988   68.3660   59.9862 H           1 HUX       0.0251
     34 H13         4.3626   68.2269   66.1584 H           1 HUX       0.0444
     35 H14         3.8816   65.8186   65.7449 H           1 HUX       0.0305
     36 H15         5.2618   66.3647   64.7776 H           1 HUX       0.0305
     37 H16         0.3167   70.9361   67.7834 H           1 HUX       0.0636
     38 H17        -2.0661   71.0518   67.9236 H           1 HUX       0.0590
     39 H18         5.4805   68.6196   61.1391 H           1 HUX       0.0408
     40 H19         4.9337   70.1032   61.9010 H           1 HUX       0.0408
@<TRIPOS>BOND
     1     1     5  ar
     2     1     6  ar
     3     6    15  ar
     4     6     7   1
     5     7     8   1
     6     8    14   1
     7     8     9   1
     8     9    10   2
     9    10    20   1
    10    10    11   1
    11    11    13   1
    12    13    15   1
    13    13    14   1
    14    15    16  ar
    15    16     2   1
    16    16    17  ar
    17    17    18  ar
    18    17     5  ar
    19     5     4  ar
    20     4     3  ar
    21     3    19  ar
    22    18    19  ar
    23    20    12   1
    24     3    21   1
    25     2    22   1
    26     2    23   1
    27     4    24   1
    28     7    25   1
    29     7    26   1
    30     8    27   1
    31     9    28   1
    32    11    29   1
    33    11    30   1
    34    12    31   1
    35    12    32   1
    36    12    33   1
    37    13    34   1
    38    14    35   1
    39    14    36   1
    40    18    37   1
    41    19    38   1
    42    20    39   1
    43    20    40   1
@<TRIPOS>SUBSTRUCTURE
     1  HUX      3

