@<TRIPOS>MOLECULE
1e66_ligand_028
    40    43
SMALL
GAST_HUCK
****
This file was generated by PARSER (from files_GN.cpp)

@<TRIPOS>ATOM
      1 N1          2.1386   67.7657   64.3688 N.ar        1 HUX      -0.3279
      2 N2         -1.4808   69.7084   64.5089 N.pl3       1 HUX      -0.3283
      3 C1          2.0011   68.8472   60.8725 C.ar        1 HUX       0.0385
      4 C2          2.4538   68.2480   62.0585 C.ar        1 HUX      -0.0382
      5 C3          1.6770   68.3302   63.2314 C.ar        1 HUX       0.0183
      6 C4          1.4778   67.8116   65.5530 C.ar        1 HUX       0.0124
      7 C5          2.1154   67.1351   66.7106 C.3         1 HUX      -0.0021
      8 C6          1.4106   67.3792   68.0842 C.3         1 HUX      -0.0218
      9 C7          1.8274   68.6580   68.6651 C.2         1 HUX      -0.1032
     10 C8          1.2344   69.8391   68.3903 C.2         1 HUX      -0.0790
     11 C9         -0.0868   69.8593   67.7174 C.3         1 HUX      -0.0183
     12 C10         3.2956   71.2742   69.0510 C.3         1 HUX      -0.0568
     13 C11        -0.4868   68.5453   66.9702 C.3         1 HUX       0.0005
     14 C12        -0.1281   67.3428   67.8809 C.3         1 HUX      -0.0333
     15 C13         0.2183   68.4617   65.6394 C.ar        1 HUX       0.0103
     16 C14        -0.2963   69.0674   64.4606 C.ar        1 HUX       0.0669
     17 C15         0.4266   69.0061   63.2330 C.ar        1 HUX       0.0195
     18 C16        -0.0230   69.5819   62.0216 C.ar        1 HUX      -0.0525
     19 C17         0.7549   69.5035   60.8524 C.ar        1 HUX      -0.0494
     20 C18         1.7616   71.1132   68.9080 C.3         1 HUX      -0.0310
     21 CL1         2.9598   68.8016   59.4795 Cl          1 HUX      -0.0699
     22 H1         -1.9685   69.7797   65.3457 H           1 HUX       0.1779
     23 H2         -1.8510   70.1273   63.7167 H           1 HUX       0.1779
     24 H3          3.3545   67.7612   62.0754 H           1 HUX       0.0596
     25 H4          3.1546   67.4646   66.7643 H           1 HUX       0.0470
     26 H5          2.1265   66.0595   66.4964 H           1 HUX       0.0470
     27 H6          1.6843   66.5639   68.7609 H           1 HUX       0.0401
     28 H7          2.6476   68.6263   69.2152 H           1 HUX       0.0247
     29 H8         -0.1238   70.6854   67.0096 H           1 HUX       0.0431
     30 H9         -0.8405   70.0693   68.4742 H           1 HUX       0.0431
     31 H10         3.5412   72.3172   69.1740 H           1 HUX       0.0251
     32 H11         3.8068   70.8960   68.1697 H           1 HUX       0.0251
     33 H12         3.6509   70.7356   69.9287 H           1 HUX       0.0251
     34 H13        -1.5670   68.5234   66.8217 H           1 HUX       0.0444
     35 H14        -0.6482   67.4197   68.8410 H           1 HUX       0.0305
     36 H15        -0.4574   66.4083   67.4053 H           1 HUX       0.0305
     37 H16        -0.9176   70.0741   61.9698 H           1 HUX       0.0636
     38 H17         0.4129   69.9350   59.9925 H           1 HUX       0.0590
     39 H18         1.2979   71.2972   69.8764 H           1 HUX       0.0408
     40 H19         1.4422   71.9087   68.2419 H           1 HUX       0.0408
@<TRIPOS>BOND
     1     1     5  ar
     2     1     6  ar
     3     6    15  ar
     4     6     7   1
     5     7     8   1
     6     8    14   1
     7     8     9   1
     8     9    10   2
     9    10    20   1
    10    10    11   1
    11    11    13   1
    12    13    15   1
    13    13    14   1
    14    15    16  ar
    15    16     2   1
    16    16    17  ar
    17    17    18  ar
    18    17     5  ar
    19     5     4  ar
    20     4     3  ar
    21     3    19  ar
    22    18    19  ar
    23    20    12   1
    24     3    21   1
    25     2    22   1
    26     2    23   1
    27     4    24   1
    28     7    25   1
    29     7    26   1
    30     8    27   1
    31     9    28   1
    32    11    29   1
    33    11    30   1
    34    12    31   1
    35    12    32   1
    36    12    33   1
    37    13    34   1
    38    14    35   1
    39    14    36   1
    40    18    37   1
    41    19    38   1
    42    20    39   1
    43    20    40   1
@<TRIPOS>SUBSTRUCTURE
     1  HUX      3

