@<TRIPOS>MOLECULE
1e66_ligand_051
    40    43
SMALL
GAST_HUCK
****
This file was generated by PARSER (from files_GN.cpp)

@<TRIPOS>ATOM
      1 N1          1.8076   68.5657   61.8156 N.ar        1 HUX      -0.3279
      2 N2          5.0086   70.0020   63.9788 N.pl3       1 HUX      -0.3283
      3 C1          3.9771   69.4549   59.0096 C.ar        1 HUX       0.0385
      4 C2          2.8805   68.9629   59.7401 C.ar        1 HUX      -0.0382
      5 C3          2.8891   69.0175   61.1435 C.ar        1 HUX       0.0183
      6 C4          1.7155   68.5708   63.1642 C.ar        1 HUX       0.0124
      7 C5          0.4661   68.0295   63.7590 C.3         1 HUX      -0.0021
      8 C6          0.5283   67.8205   65.3059 C.3         1 HUX      -0.0218
      9 C7          1.2107   66.5613   65.6195 C.2         1 HUX      -0.1032
     10 C8          2.5488   66.4533   65.7848 C.2         1 HUX      -0.0790
     11 C9          3.3807   67.6644   65.9002 C.3         1 HUX      -0.0183
     12 C10         2.9731   64.1013   64.8780 C.3         1 HUX      -0.0568
     13 C11         2.7154   68.9981   65.4365 C.3         1 HUX       0.0005
     14 C12         1.2517   69.0308   65.9556 C.3         1 HUX      -0.0333
     15 C13         2.7885   69.0865   63.9406 C.ar        1 HUX       0.0103
     16 C14         3.9496   69.5574   63.2674 C.ar        1 HUX       0.0669
     17 C15         4.0064   69.5391   61.8503 C.ar        1 HUX       0.0195
     18 C16         5.1089   70.0135   61.0980 C.ar        1 HUX      -0.0525
     19 C17         5.0820   69.9835   59.6946 C.ar        1 HUX      -0.0494
     20 C18         3.1696   65.1403   66.0106 C.3         1 HUX      -0.0310
     21 CL1         3.9811   69.4342   57.3176 Cl          1 HUX      -0.0699
     22 H1          4.9820   70.0028   64.9475 H           1 HUX       0.1779
     23 H2          5.8108   70.3074   63.5297 H           1 HUX       0.1779
     24 H3          2.0623   68.5848   59.2555 H           1 HUX       0.0596
     25 H4          0.2245   67.0823   63.2680 H           1 HUX       0.0470
     26 H5         -0.3398   68.7303   63.5271 H           1 HUX       0.0470
     27 H6         -0.4918   67.7791   65.7027 H           1 HUX       0.0401
     28 H7          0.6521   65.7400   65.6220 H           1 HUX       0.0247
     29 H8          4.3168   67.5189   65.3520 H           1 HUX       0.0431
     30 H9          3.6353   67.7806   66.9529 H           1 HUX       0.0431
     31 H10         3.5097   63.1822   65.1348 H           1 HUX       0.0251
     32 H11         3.3620   64.4855   63.9316 H           1 HUX       0.0251
     33 H12         1.9185   63.8547   64.7504 H           1 HUX       0.0251
     34 H13         3.2319   69.8493   65.8881 H           1 HUX       0.0444
     35 H14         1.2257   68.9579   67.0478 H           1 HUX       0.0305
     36 H15         0.7649   69.9667   65.6678 H           1 HUX       0.0305
     37 H16         5.9425   70.3890   61.5528 H           1 HUX       0.0636
     38 H17         5.8822   70.3359   59.1700 H           1 HUX       0.0590
     39 H18         2.7832   64.7320   66.9453 H           1 HUX       0.0408
     40 H19         4.2483   65.2442   66.1440 H           1 HUX       0.0408
@<TRIPOS>BOND
     1     1     5  ar
     2     1     6  ar
     3     6    15  ar
     4     6     7   1
     5     7     8   1
     6     8    14   1
     7     8     9   1
     8     9    10   2
     9    10    20   1
    10    10    11   1
    11    11    13   1
    12    13    15   1
    13    13    14   1
    14    15    16  ar
    15    16     2   1
    16    16    17  ar
    17    17    18  ar
    18    17     5  ar
    19     5     4  ar
    20     4     3  ar
    21     3    19  ar
    22    18    19  ar
    23    20    12   1
    24     3    21   1
    25     2    22   1
    26     2    23   1
    27     4    24   1
    28     7    25   1
    29     7    26   1
    30     8    27   1
    31     9    28   1
    32    11    29   1
    33    11    30   1
    34    12    31   1
    35    12    32   1
    36    12    33   1
    37    13    34   1
    38    14    35   1
    39    14    36   1
    40    18    37   1
    41    19    38   1
    42    20    39   1
    43    20    40   1
@<TRIPOS>SUBSTRUCTURE
     1  HUX      3

