@<TRIPOS>MOLECULE
1e66_ligand_015
    40    43
SMALL
GAST_HUCK
****
This file was generated by PARSER (from files_GN.cpp)

@<TRIPOS>ATOM
      1 N1          3.1532   66.5763   65.6575 N.ar        1 HUX      -0.3279
      2 N2          4.2469   70.5255   65.8895 N.pl3       1 HUX      -0.3283
      3 C1          1.1482   67.5037   68.5816 C.ar        1 HUX       0.0385
      4 C2          1.7385   66.7373   67.5609 C.ar        1 HUX      -0.0382
      5 C3          2.6165   67.3360   66.6415 C.ar        1 HUX       0.0183
      6 C4          4.0277   67.0487   64.7380 C.ar        1 HUX       0.0124
      7 C5          4.5542   66.0830   63.7372 C.3         1 HUX      -0.0021
      8 C6          5.3870   66.7496   62.5992 C.3         1 HUX      -0.0218
      9 C7          4.4956   67.3392   61.5959 C.2         1 HUX      -0.1032
     10 C8          4.1268   68.6404   61.5964 C.2         1 HUX      -0.0790
     11 C9          4.6803   69.5853   62.5791 C.3         1 HUX      -0.0183
     12 C10         1.7315   69.0647   61.0625 C.3         1 HUX      -0.0568
     13 C11         5.4279   68.9360   63.7852 C.3         1 HUX       0.0005
     14 C12         6.3375   67.8112   63.2291 C.3         1 HUX      -0.0333
     15 C13         4.4489   68.4059   64.8025 C.ar        1 HUX       0.0103
     16 C14         3.8864   69.2311   65.8149 C.ar        1 HUX       0.0669
     17 C15         2.9562   68.7095   66.7519 C.ar        1 HUX       0.0195
     18 C16         2.3532   69.4697   67.7879 C.ar        1 HUX      -0.0525
     19 C17         1.4472   68.8742   68.6855 C.ar        1 HUX      -0.0494
     20 C18         3.2002   69.1575   60.5877 C.3         1 HUX      -0.0310
     21 CL1         0.0736   66.7782   69.6693 Cl          1 HUX      -0.0699
     22 H1          4.8692   70.8978   65.2480 H           1 HUX       0.1779
     23 H2          3.8901   71.0867   66.5900 H           1 HUX       0.1779
     24 H3          1.5376   65.7399   67.4859 H           1 HUX       0.0596
     25 H4          3.7221   65.5178   63.3068 H           1 HUX       0.0470
     26 H5          5.1912   65.3701   64.2675 H           1 HUX       0.0470
     27 H6          5.9964   65.9884   62.1060 H           1 HUX       0.0401
     28 H7          4.0858   66.7194   60.9329 H           1 HUX       0.0247
     29 H8          3.8836   70.2201   62.9727 H           1 HUX       0.0431
     30 H9          5.3817   70.2350   62.0475 H           1 HUX       0.0431
     31 H10         1.0606   69.4154   60.2774 H           1 HUX       0.0251
     32 H11         1.5717   69.6773   61.9526 H           1 HUX       0.0251
     33 H12         1.4756   68.0303   61.2951 H           1 HUX       0.0251
     34 H13         6.0882   69.6771   64.2473 H           1 HUX       0.0444
     35 H14         7.0315   68.2085   62.4807 H           1 HUX       0.0305
     36 H15         6.9307   67.3861   64.0444 H           1 HUX       0.0305
     37 H16         2.5579   70.4638   67.9025 H           1 HUX       0.0636
     38 H17         0.9958   69.4454   69.4051 H           1 HUX       0.0590
     39 H18         3.2977   68.6107   59.6464 H           1 HUX       0.0408
     40 H19         3.4415   70.2017   60.3639 H           1 HUX       0.0408
@<TRIPOS>BOND
     1     1     5  ar
     2     1     6  ar
     3     6    15  ar
     4     6     7   1
     5     7     8   1
     6     8    14   1
     7     8     9   1
     8     9    10   2
     9    10    20   1
    10    10    11   1
    11    11    13   1
    12    13    15   1
    13    13    14   1
    14    15    16  ar
    15    16     2   1
    16    16    17  ar
    17    17    18  ar
    18    17     5  ar
    19     5     4  ar
    20     4     3  ar
    21     3    19  ar
    22    18    19  ar
    23    20    12   1
    24     3    21   1
    25     2    22   1
    26     2    23   1
    27     4    24   1
    28     7    25   1
    29     7    26   1
    30     8    27   1
    31     9    28   1
    32    11    29   1
    33    11    30   1
    34    12    31   1
    35    12    32   1
    36    12    33   1
    37    13    34   1
    38    14    35   1
    39    14    36   1
    40    18    37   1
    41    19    38   1
    42    20    39   1
    43    20    40   1
@<TRIPOS>SUBSTRUCTURE
     1  HUX      3

