@<TRIPOS>MOLECULE
1e66_ligand_012
    40    43
SMALL
GAST_HUCK
****
This file was generated by PARSER (from files_GN.cpp)

@<TRIPOS>ATOM
      1 N1          0.2197   62.5427   73.3333 N.ar        1 HUX      -0.3279
      2 N2          2.9977   60.9153   75.8993 N.pl3       1 HUX      -0.3283
      3 C1         -1.0549   63.9756   76.4589 C.ar        1 HUX       0.0385
      4 C2         -0.9315   63.6644   75.0928 C.ar        1 HUX      -0.0382
      5 C3          0.1127   62.8254   74.6527 C.ar        1 HUX       0.0183
      6 C4          1.1872   61.7501   72.8106 C.ar        1 HUX       0.0124
      7 C5          1.1612   61.5238   71.3407 C.3         1 HUX      -0.0021
      8 C6          2.4023   60.7555   70.7830 C.3         1 HUX      -0.0218
      9 C7          3.5446   61.6614   70.5901 C.2         1 HUX      -0.1032
     10 C8          4.4590   61.9386   71.5450 C.2         1 HUX      -0.0790
     11 C9          4.4979   61.1437   72.7881 C.3         1 HUX      -0.0183
     12 C10         5.2433   64.2023   70.5690 C.3         1 HUX      -0.0568
     13 C11         3.2254   60.2811   73.0817 C.3         1 HUX       0.0005
     14 C12         2.7729   59.6030   71.7577 C.3         1 HUX      -0.0333
     15 C13         2.1421   61.1440   73.6694 C.ar        1 HUX       0.0103
     16 C14         2.0754   61.4369   75.0620 C.ar        1 HUX       0.0669
     17 C15         1.0505   62.2791   75.5699 C.ar        1 HUX       0.0195
     18 C16         0.9056   62.6074   76.9423 C.ar        1 HUX      -0.0525
     19 C17        -0.1343   63.4460   77.3820 C.ar        1 HUX      -0.0494
     20 C18         5.5757   62.8602   71.2779 C.3         1 HUX      -0.0310
     21 CL1        -2.3037   64.9868   76.9920 Cl          1 HUX      -0.0699
     22 H1          3.7072   60.3516   75.5572 H           1 HUX       0.1779
     23 H2          2.9648   61.1019   76.8502 H           1 HUX       0.1779
     24 H3         -1.6013   64.0466   74.4190 H           1 HUX       0.0596
     25 H4          1.0676   62.4878   70.8311 H           1 HUX       0.0470
     26 H5          0.2574   60.9506   71.1160 H           1 HUX       0.0470
     27 H6          2.1319   60.3155   69.8173 H           1 HUX       0.0401
     28 H7          3.6017   62.1271   69.7116 H           1 HUX       0.0247
     29 H8          4.6817   61.8029   73.6426 H           1 HUX       0.0431
     30 H9          5.3566   60.4658   72.7229 H           1 HUX       0.0431
     31 H10         6.1202   64.8485   70.5963 H           1 HUX       0.0251
     32 H11         4.4126   64.7132   71.0615 H           1 HUX       0.0251
     33 H12         4.9909   64.0355   69.5192 H           1 HUX       0.0251
     34 H13         3.4757   59.4742   73.7747 H           1 HUX       0.0444
     35 H14         3.5815   58.9959   71.3389 H           1 HUX       0.0305
     36 H15         1.9170   58.9443   71.9300 H           1 HUX       0.0305
     37 H16         1.5522   62.2399   77.6415 H           1 HUX       0.0636
     38 H17        -0.2176   63.6666   78.3765 H           1 HUX       0.0590
     39 H18         6.0560   63.1354   72.2235 H           1 HUX       0.0408
     40 H19         6.3170   62.3262   70.6790 H           1 HUX       0.0408
@<TRIPOS>BOND
     1     1     5  ar
     2     1     6  ar
     3     6    15  ar
     4     6     7   1
     5     7     8   1
     6     8    14   1
     7     8     9   1
     8     9    10   2
     9    10    20   1
    10    10    11   1
    11    11    13   1
    12    13    15   1
    13    13    14   1
    14    15    16  ar
    15    16     2   1
    16    16    17  ar
    17    17    18  ar
    18    17     5  ar
    19     5     4  ar
    20     4     3  ar
    21     3    19  ar
    22    18    19  ar
    23    20    12   1
    24     3    21   1
    25     2    22   1
    26     2    23   1
    27     4    24   1
    28     7    25   1
    29     7    26   1
    30     8    27   1
    31     9    28   1
    32    11    29   1
    33    11    30   1
    34    12    31   1
    35    12    32   1
    36    12    33   1
    37    13    34   1
    38    14    35   1
    39    14    36   1
    40    18    37   1
    41    19    38   1
    42    20    39   1
    43    20    40   1
@<TRIPOS>SUBSTRUCTURE
     1  HUX      3

