@<TRIPOS>MOLECULE
1e66_ligand_001
    40    43
SMALL
GAST_HUCK
****
This file was generated by PARSER (from files_GN.cpp)

@<TRIPOS>ATOM
      1 N1          1.2173   68.9486   65.6288 N.ar        1 HUX      -0.3279
      2 N2          0.6937   69.0466   61.5460 N.pl3       1 HUX      -0.3283
      3 C1         -2.4463   68.9045   65.5755 C.ar        1 HUX       0.0385
      4 C2         -1.1243   68.9221   66.0541 C.ar        1 HUX      -0.0382
      5 C3         -0.0482   68.9604   65.1489 C.ar        1 HUX       0.0183
      6 C4          2.3204   68.9664   64.8425 C.ar        1 HUX       0.0124
      7 C5          3.6422   68.9242   65.5241 C.3         1 HUX      -0.0021
      8 C6          4.8414   68.6690   64.5589 C.3         1 HUX      -0.0218
      9 C7          4.9277   67.2506   64.1937 C.2         1 HUX      -0.1032
     10 C8          4.3775   66.7180   63.0777 C.2         1 HUX      -0.0790
     11 C9          3.7267   67.5741   62.0746 C.3         1 HUX      -0.0183
     12 C10         3.7132   64.4038   63.8251 C.3         1 HUX      -0.0568
     13 C11         3.4103   69.0298   62.5569 C.3         1 HUX       0.0005
     14 C12         4.6637   69.5670   63.3069 C.3         1 HUX      -0.0333
     15 C13         2.1791   69.0367   63.4294 C.ar        1 HUX       0.0103
     16 C14         0.8616   69.0307   62.8864 C.ar        1 HUX       0.0669
     17 C15        -0.2707   68.9949   63.7458 C.ar        1 HUX       0.0195
     18 C16        -1.6122   68.9817   63.2848 C.ar        1 HUX      -0.0525
     19 C17        -2.6874   68.9333   64.1906 C.ar        1 HUX      -0.0494
     20 C18         4.4931   65.2802   62.8164 C.3         1 HUX      -0.0310
     21 CL1        -3.7458   68.8409   66.6601 Cl          1 HUX      -0.0699
     22 H1          1.4620   69.0558   60.9539 H           1 HUX       0.1779
     23 H2         -0.1957   69.0349   61.1596 H           1 HUX       0.1779
     24 H3         -0.9458   68.8949   67.0611 H           1 HUX       0.0596
     25 H4          3.6264   68.1543   66.3002 H           1 HUX       0.0470
     26 H5          3.7847   69.8870   66.0220 H           1 HUX       0.0470
     27 H6          5.7699   68.9537   65.0614 H           1 HUX       0.0401
     28 H7          5.3709   66.6470   64.8470 H           1 HUX       0.0247
     29 H8          4.3916   67.6319   61.2074 H           1 HUX       0.0431
     30 H9          2.7996   67.1039   61.7348 H           1 HUX       0.0431
     31 H10         3.8181   63.3515   63.5567 H           1 HUX       0.0251
     32 H11         2.6544   64.6583   63.8051 H           1 HUX       0.0251
     33 H12         4.0919   64.5419   64.8382 H           1 HUX       0.0251
     34 H13         3.2524   69.6805   61.6900 H           1 HUX       0.0444
     35 H14         5.5502   69.5174   62.6655 H           1 HUX       0.0305
     36 H15         4.5206   70.6102   63.5988 H           1 HUX       0.0305
     37 H16        -1.8255   69.0103   62.2876 H           1 HUX       0.0636
     38 H17        -3.6460   68.9167   63.8342 H           1 HUX       0.0590
     39 H18         5.5477   64.9908   62.8360 H           1 HUX       0.0408
     40 H19         4.1200   65.0427   61.8149 H           1 HUX       0.0408
@<TRIPOS>BOND
     1     1     5  ar
     2     1     6  ar
     3     6    15  ar
     4     6     7   1
     5     7     8   1
     6     8    14   1
     7     8     9   1
     8     9    10   2
     9    10    20   1
    10    10    11   1
    11    11    13   1
    12    13    15   1
    13    13    14   1
    14    15    16  ar
    15    16     2   1
    16    16    17  ar
    17    17    18  ar
    18    17     5  ar
    19     5     4  ar
    20     4     3  ar
    21     3    19  ar
    22    18    19  ar
    23    20    12   1
    24     3    21   1
    25     2    22   1
    26     2    23   1
    27     4    24   1
    28     7    25   1
    29     7    26   1
    30     8    27   1
    31     9    28   1
    32    11    29   1
    33    11    30   1
    34    12    31   1
    35    12    32   1
    36    12    33   1
    37    13    34   1
    38    14    35   1
    39    14    36   1
    40    18    37   1
    41    19    38   1
    42    20    39   1
    43    20    40   1
@<TRIPOS>SUBSTRUCTURE
     1  HUX      3

