@<TRIPOS>MOLECULE
1e66_ligand_035
    40    43
SMALL
GAST_HUCK
****
This file was generated by PARSER (from files_GN.cpp)

@<TRIPOS>ATOM
      1 N1         -0.3143   68.7461   64.4782 N.ar        1 HUX      -0.3279
      2 N2         -1.6620   67.5340   68.1864 N.pl3       1 HUX      -0.3283
      3 C1         -3.8355   69.6038   64.0513 C.ar        1 HUX       0.0385
      4 C2         -2.4729   69.4135   63.7738 C.ar        1 HUX      -0.0382
      5 C3         -1.6320   68.8602   64.7544 C.ar        1 HUX       0.0183
      6 C4          0.5858   68.2573   65.3597 C.ar        1 HUX       0.0124
      7 C5          2.0004   68.1791   64.9000 C.3         1 HUX      -0.0021
      8 C6          3.0041   67.8043   66.0331 C.3         1 HUX      -0.0218
      9 C7          3.3062   68.9785   66.8639 C.2         1 HUX      -0.1032
     10 C8          2.6532   69.2848   68.0099 C.2         1 HUX      -0.0790
     11 C9          1.6617   68.3610   68.5788 C.3         1 HUX      -0.0183
     12 C10         4.2788   70.3244   69.6097 C.3         1 HUX      -0.0568
     13 C11         1.1597   67.2473   67.6062 C.3         1 HUX       0.0005
     14 C12         2.3804   66.6436   66.8585 C.3         1 HUX      -0.0333
     15 C13         0.1525   67.7992   66.6365 C.ar        1 HUX       0.0103
     16 C14        -1.2264   67.9206   66.9664 C.ar        1 HUX       0.0669
     17 C15        -2.1379   68.4542   66.0186 C.ar        1 HUX       0.0195
     18 C16        -3.5227   68.6207   66.2644 C.ar        1 HUX      -0.0525
     19 C17        -4.3622   69.1890   65.2887 C.ar        1 HUX      -0.0494
     20 C18         3.0016   70.4965   68.7620 C.3         1 HUX      -0.0310
     21 CL1        -4.8174   70.3522   62.8958 Cl          1 HUX      -0.0699
     22 H1         -1.0390   67.1882   68.8428 H           1 HUX       0.1779
     23 H2         -2.5977   67.6153   68.4267 H           1 HUX       0.1779
     24 H3         -2.0880   69.7105   62.8730 H           1 HUX       0.0596
     25 H4          2.2886   69.1351   64.4481 H           1 HUX       0.0470
     26 H5          2.0536   67.4189   64.1155 H           1 HUX       0.0470
     27 H6          3.9359   67.4492   65.5790 H           1 HUX       0.0401
     28 H7          3.9836   69.6186   66.5074 H           1 HUX       0.0247
     29 H8          2.1214   67.8830   69.4499 H           1 HUX       0.0431
     30 H9          0.7941   68.9170   68.9434 H           1 HUX       0.0431
     31 H10         4.4872   71.2466   70.1522 H           1 HUX       0.0251
     32 H11         5.1331   70.0926   68.9736 H           1 HUX       0.0251
     33 H12         4.1501   69.5182   70.3374 H           1 HUX       0.0251
     34 H13         0.7145   66.4432   68.1943 H           1 HUX       0.0444
     35 H14         3.0962   66.2346   67.5738 H           1 HUX       0.0305
     36 H15         2.0659   65.8256   66.1999 H           1 HUX       0.0305
     37 H16        -3.9426   68.3382   67.1533 H           1 HUX       0.0636
     38 H17        -5.3585   69.2913   65.4857 H           1 HUX       0.0590
     39 H18         2.1863   70.7752   69.4384 H           1 HUX       0.0408
     40 H19         3.1335   71.3392   68.0790 H           1 HUX       0.0408
@<TRIPOS>BOND
     1     1     5  ar
     2     1     6  ar
     3     6    15  ar
     4     6     7   1
     5     7     8   1
     6     8    14   1
     7     8     9   1
     8     9    10   2
     9    10    20   1
    10    10    11   1
    11    11    13   1
    12    13    15   1
    13    13    14   1
    14    15    16  ar
    15    16     2   1
    16    16    17  ar
    17    17    18  ar
    18    17     5  ar
    19     5     4  ar
    20     4     3  ar
    21     3    19  ar
    22    18    19  ar
    23    20    12   1
    24     3    21   1
    25     2    22   1
    26     2    23   1
    27     4    24   1
    28     7    25   1
    29     7    26   1
    30     8    27   1
    31     9    28   1
    32    11    29   1
    33    11    30   1
    34    12    31   1
    35    12    32   1
    36    12    33   1
    37    13    34   1
    38    14    35   1
    39    14    36   1
    40    18    37   1
    41    19    38   1
    42    20    39   1
    43    20    40   1
@<TRIPOS>SUBSTRUCTURE
     1  HUX      3

