@<TRIPOS>MOLECULE
1e66_ligand_031
    40    43
SMALL
GAST_HUCK
****
This file was generated by PARSER (from files_GN.cpp)

@<TRIPOS>ATOM
      1 N1          0.4041   62.7862   72.6648 N.ar        1 HUX      -0.3279
      2 N2          1.6908   61.8437   76.4662 N.pl3       1 HUX      -0.3283
      3 C1         -0.8687   65.7497   74.4053 C.ar        1 HUX       0.0385
      4 C2         -0.5613   64.8408   73.3766 C.ar        1 HUX      -0.0382
      5 C3          0.1343   63.6550   73.6666 C.ar        1 HUX       0.0183
      6 C4          1.0765   61.6224   72.8443 C.ar        1 HUX       0.0124
      7 C5          1.2967   60.7689   71.6465 C.3         1 HUX      -0.0021
      8 C6          2.3084   59.6017   71.8802 C.3         1 HUX      -0.0218
      9 C7          3.6919   60.0884   71.8493 C.2         1 HUX      -0.1032
     10 C8          4.4003   60.4520   72.9442 C.2         1 HUX      -0.0790
     11 C9          3.8213   60.2965   74.2935 C.3         1 HUX      -0.0183
     12 C10         6.5591   60.8845   71.5506 C.3         1 HUX      -0.0568
     13 C11         2.2944   59.9772   74.3322 C.3         1 HUX       0.0005
     14 C12         1.9819   58.9230   73.2357 C.3         1 HUX      -0.0333
     15 C13         1.5073   61.2510   74.1443 C.ar        1 HUX       0.0103
     16 C14         1.2553   62.1468   75.2231 C.ar        1 HUX       0.0669
     17 C15         0.5543   63.3619   74.9946 C.ar        1 HUX       0.0195
     18 C16         0.2512   64.2988   76.0124 C.ar        1 HUX      -0.0525
     19 C17        -0.4611   65.4766   75.7224 C.ar        1 HUX      -0.0494
     20 C18         5.7646   61.0013   72.8790 C.3         1 HUX      -0.0310
     21 CL1        -1.7584   67.1478   74.0685 Cl          1 HUX      -0.0699
     22 H1          2.1800   61.0237   76.6285 H           1 HUX       0.1779
     23 H2          1.5240   62.4441   77.2074 H           1 HUX       0.1779
     24 H3         -0.8616   65.0388   72.4182 H           1 HUX       0.0596
     25 H4          1.6385   61.3830   70.8087 H           1 HUX       0.0470
     26 H5          0.3295   60.3449   71.3625 H           1 HUX       0.0470
     27 H6          2.1825   58.8580   71.0849 H           1 HUX       0.0401
     28 H7          4.0840   60.2262   70.9479 H           1 HUX       0.0247
     29 H8          4.3593   59.4847   74.7886 H           1 HUX       0.0431
     30 H9          4.0082   61.2053   74.8760 H           1 HUX       0.0431
     31 H10         7.6067   61.1370   71.7217 H           1 HUX       0.0251
     32 H11         6.1555   61.5613   70.7933 H           1 HUX       0.0251
     33 H12         6.5205   59.8630   71.1751 H           1 HUX       0.0251
     34 H13         2.0372   59.5213   75.2922 H           1 HUX       0.0444
     35 H14         2.5942   58.0255   73.3705 H           1 HUX       0.0305
     36 H15         0.9306   58.6277   73.2730 H           1 HUX       0.0305
     37 H16         0.5330   64.1369   76.9817 H           1 HUX       0.0636
     38 H17        -0.6720   66.1310   76.4761 H           1 HUX       0.0590
     39 H18         6.3783   60.5106   73.6432 H           1 HUX       0.0408
     40 H19         5.7174   62.0642   73.1442 H           1 HUX       0.0408
@<TRIPOS>BOND
     1     1     5  ar
     2     1     6  ar
     3     6    15  ar
     4     6     7   1
     5     7     8   1
     6     8    14   1
     7     8     9   1
     8     9    10   2
     9    10    20   1
    10    10    11   1
    11    11    13   1
    12    13    15   1
    13    13    14   1
    14    15    16  ar
    15    16     2   1
    16    16    17  ar
    17    17    18  ar
    18    17     5  ar
    19     5     4  ar
    20     4     3  ar
    21     3    19  ar
    22    18    19  ar
    23    20    12   1
    24     3    21   1
    25     2    22   1
    26     2    23   1
    27     4    24   1
    28     7    25   1
    29     7    26   1
    30     8    27   1
    31     9    28   1
    32    11    29   1
    33    11    30   1
    34    12    31   1
    35    12    32   1
    36    12    33   1
    37    13    34   1
    38    14    35   1
    39    14    36   1
    40    18    37   1
    41    19    38   1
    42    20    39   1
    43    20    40   1
@<TRIPOS>SUBSTRUCTURE
     1  HUX      3

