@<TRIPOS>MOLECULE
1e66_ligand_027
    40    43
SMALL
GAST_HUCK
****
This file was generated by PARSER (from files_GN.cpp)

@<TRIPOS>ATOM
      1 N1          1.6063   63.9802   73.1633 N.ar        1 HUX      -0.3279
      2 N2          3.2054   60.8434   75.2980 N.pl3       1 HUX      -0.3283
      3 C1          4.5078   63.3235   71.0240 C.ar        1 HUX       0.0385
      4 C2          3.3168   63.8924   71.5124 C.ar        1 HUX      -0.0382
      5 C3          2.7381   63.4032   72.6994 C.ar        1 HUX       0.0183
      6 C4          0.9816   63.5980   74.3030 C.ar        1 HUX       0.0124
      7 C5         -0.2342   64.3594   74.6944 C.3         1 HUX      -0.0021
      8 C6         -1.0095   63.7378   75.8971 C.3         1 HUX      -0.0218
      9 C7         -1.8355   62.6085   75.4571 C.2         1 HUX      -0.1032
     10 C8         -1.4443   61.3136   75.5171 C.2         1 HUX      -0.0790
     11 C9         -0.1462   60.9462   76.1106 C.3         1 HUX      -0.0183
     12 C10        -1.9237   59.5345   73.7958 C.3         1 HUX      -0.0568
     13 C11         0.8352   62.1372   76.3652 C.3         1 HUX       0.0005
     14 C12         0.0161   63.3058   76.9823 C.3         1 HUX      -0.0333
     15 C13         1.5267   62.5449   75.0888 C.ar        1 HUX       0.0103
     16 C14         2.6988   61.8907   74.6125 C.ar        1 HUX       0.0669
     17 C15         3.3336   62.3318   73.4189 C.ar        1 HUX       0.0195
     18 C16         4.5336   61.7742   72.9074 C.ar        1 HUX      -0.0525
     19 C17         5.1156   62.2662   71.7243 C.ar        1 HUX      -0.0494
     20 C18        -2.3534   60.2369   75.1049 C.3         1 HUX      -0.0310
     21 CL1         5.2122   63.9147   69.6043 Cl          1 HUX      -0.0699
     22 H1          2.7689   60.5263   76.1029 H           1 HUX       0.1779
     23 H2          3.9955   60.3829   74.9795 H           1 HUX       0.1779
     24 H3          2.8778   64.6690   71.0099 H           1 HUX       0.0596
     25 H4         -0.8982   64.4454   73.8300 H           1 HUX       0.0470
     26 H5          0.0815   65.3715   74.9629 H           1 HUX       0.0470
     27 H6         -1.6671   64.5005   76.3281 H           1 HUX       0.0401
     28 H7         -2.7095   62.8334   75.0382 H           1 HUX       0.0247
     29 H8          0.3562   60.2082   75.4805 H           1 HUX       0.0431
     30 H9         -0.3492   60.4599   77.0691 H           1 HUX       0.0431
     31 H10        -2.6725   58.7885   73.5272 H           1 HUX       0.0251
     32 H11        -0.9676   59.0234   73.9148 H           1 HUX       0.0251
     33 H12        -1.8440   60.2563   72.9802 H           1 HUX       0.0251
     34 H13         1.5791   61.8428   77.1100 H           1 HUX       0.0444
     35 H14         0.6729   64.1379   77.2526 H           1 HUX       0.0305
     36 H15        -0.5019   62.9798   77.8902 H           1 HUX       0.0305
     37 H16         5.0087   61.0100   73.3914 H           1 HUX       0.0636
     38 H17         5.9859   61.8536   71.3788 H           1 HUX       0.0590
     39 H18        -3.3729   60.6070   74.9525 H           1 HUX       0.0408
     40 H19        -2.4144   59.4912   75.9028 H           1 HUX       0.0408
@<TRIPOS>BOND
     1     1     5  ar
     2     1     6  ar
     3     6    15  ar
     4     6     7   1
     5     7     8   1
     6     8    14   1
     7     8     9   1
     8     9    10   2
     9    10    20   1
    10    10    11   1
    11    11    13   1
    12    13    15   1
    13    13    14   1
    14    15    16  ar
    15    16     2   1
    16    16    17  ar
    17    17    18  ar
    18    17     5  ar
    19     5     4  ar
    20     4     3  ar
    21     3    19  ar
    22    18    19  ar
    23    20    12   1
    24     3    21   1
    25     2    22   1
    26     2    23   1
    27     4    24   1
    28     7    25   1
    29     7    26   1
    30     8    27   1
    31     9    28   1
    32    11    29   1
    33    11    30   1
    34    12    31   1
    35    12    32   1
    36    12    33   1
    37    13    34   1
    38    14    35   1
    39    14    36   1
    40    18    37   1
    41    19    38   1
    42    20    39   1
    43    20    40   1
@<TRIPOS>SUBSTRUCTURE
     1  HUX      3

