@<TRIPOS>MOLECULE
1f8b_ligand_034
    36    36
SMALL
GAST_HUCK
****
This file was generated by PARSER (from files_GN.cpp)

@<TRIPOS>ATOM
      1 C1         23.9793   19.6225   64.5653 C.2         1 DAN       0.0809
      2 C2         25.2346   20.1160   64.8746 C.2         1 DAN       0.1088
      3 C3         25.6069   20.4289   66.1331 C.2         1 DAN      -0.0276
      4 C4         27.0046   20.6370   66.4940 C.3         1 DAN       0.1003
      5 C5         27.9669   20.8610   65.2792 C.3         1 DAN       0.1064
      6 C6         27.4879   20.0171   64.0493 C.3         1 DAN       0.1321
      7 C7         28.2796   20.2985   62.7282 C.3         1 DAN       0.1154
      8 C8         27.5695   19.8899   61.3959 C.3         1 DAN       0.1068
      9 C9         26.6407   18.6536   61.5169 C.3         1 DAN       0.0727
     10 C10        29.9855   19.6188   66.0332 C.2         1 DAN       0.1734
     11 C11        31.4084   19.6975   66.2789 C.3         1 DAN       0.0257
     12 N5         29.3571   20.7035   65.5992 N.am        1 DAN      -0.2770
     13 O1A        22.8374   20.1468   65.0705 O.co2       1 DAN      -0.5623
     14 O1B        23.8670   18.4332   63.9172 O.co2       1 DAN      -0.5623
     15 O4         27.1156   21.7107   67.4317 O.3         1 DAN      -0.3807
     16 O6         26.0822   20.2771   63.8365 O.3         1 DAN      -0.3189
     17 O7         28.6304   21.6844   62.6453 O.3         1 DAN      -0.3861
     18 O8         26.8150   20.9826   60.8569 O.3         1 DAN      -0.3869
     19 O9         26.5710   17.9505   60.2766 O.3         1 DAN      -0.3924
     20 O10        29.4099   18.5532   66.2171 O.2         1 DAN      -0.3974
     21 H1         24.9571   20.3194   66.8764 H           1 DAN       0.0480
     22 H2         27.3196   19.7353   67.0255 H           1 DAN       0.0740
     23 H3         27.8585   21.9121   65.0079 H           1 DAN       0.0632
     24 H4         27.5933   18.9545   64.2921 H           1 DAN       0.0697
     25 H5         29.2184   19.7398   62.7787 H           1 DAN       0.0650
     26 H6         28.3476   19.6514   60.6620 H           1 DAN       0.0643
     27 H7         25.6298   18.9571   61.7925 H           1 DAN       0.0584
     28 H8         27.0175   17.9687   62.2808 H           1 DAN       0.0584
     29 H9         31.8193   18.7497   66.6330 H           1 DAN       0.0467
     30 H10        31.6146   20.4649   67.0281 H           1 DAN       0.0467
     31 H11        31.9255   19.9696   65.3530 H           1 DAN       0.0467
     32 H12        29.9085   21.4955   65.4787 H           1 DAN       0.1858
     33 H13        26.8913   22.5441   66.9631 H           1 DAN       0.2127
     34 H14        29.1480   21.7902   61.8201 H           1 DAN       0.2100
     35 H15        27.4892   21.6425   60.5702 H           1 DAN       0.2100
     36 H16        25.7785   18.3082   59.8101 H           1 DAN       0.2095
@<TRIPOS>BOND
     1     1    14  ar
     2     1    13  ar
     3     1     2   1
     4     2    16   1
     5     2     3   2
     6     3     4   1
     7     4    15   1
     8     4     5   1
     9     5    12   1
    10     5     6   1
    11     6    16   1
    12     6     7   1
    13     7    17   1
    14     7     8   1
    15     8    18   1
    16     8     9   1
    17     9    19   1
    18    12    10  am
    19    10    20   2
    20    10    11   1
    21     3    21   1
    22     4    22   1
    23     5    23   1
    24     6    24   1
    25     7    25   1
    26     8    26   1
    27     9    27   1
    28     9    28   1
    29    11    29   1
    30    11    30   1
    31    11    31   1
    32    12    32   1
    33    15    33   1
    34    17    34   1
    35    18    35   1
    36    19    36   1
@<TRIPOS>SUBSTRUCTURE
     1  DAN      1

