@<TRIPOS>MOLECULE
1f8b_ligand_068
    36    36
SMALL
GAST_HUCK
****
This file was generated by PARSER (from files_GN.cpp)

@<TRIPOS>ATOM
      1 C1         25.1591   20.3536   65.3995 C.2         1 DAN       0.0809
      2 C2         26.5146   20.0740   65.4013 C.2         1 DAN       0.1088
      3 C3         27.1476   19.5668   66.4770 C.2         1 DAN      -0.0276
      4 C4         28.5984   19.4798   66.4748 C.3         1 DAN       0.1003
      5 C5         29.2047   19.1050   65.0768 C.3         1 DAN       0.1064
      6 C6         28.1890   19.3699   63.9016 C.3         1 DAN       0.1321
      7 C7         28.8765   19.7341   62.5479 C.3         1 DAN       0.1154
      8 C8         27.9460   19.7859   61.2902 C.3         1 DAN       0.1068
      9 C9         27.0393   18.5433   61.0659 C.3         1 DAN       0.0727
     10 C10        30.7948   17.2161   65.2717 C.2         1 DAN       0.1734
     11 C11        30.9420   15.7765   65.3263 C.3         1 DAN       0.0257
     12 N5         29.5824   17.7157   65.0860 N.am        1 DAN      -0.2770
     13 O1A        24.6464   21.2262   64.5049 O.co2       1 DAN      -0.5623
     14 O1B        24.2726   19.6716   66.1739 O.co2       1 DAN      -0.5623
     15 O4         29.0994   20.7441   66.9211 O.3         1 DAN      -0.3807
     16 O6         27.2334   20.3899   64.2932 O.3         1 DAN      -0.3189
     17 O7         29.5372   20.9978   62.6670 O.3         1 DAN      -0.3861
     18 O8         27.1294   20.9527   61.3319 O.3         1 DAN      -0.3869
     19 O9         27.7888   17.3303   61.0060 O.3         1 DAN      -0.3924
     20 O10        31.7779   17.9261   65.4373 O.2         1 DAN      -0.3974
     21 H1         26.6427   19.3305   67.3043 H           1 DAN       0.0480
     22 H2         28.9033   18.7597   67.2382 H           1 DAN       0.0740
     23 H3         30.0893   19.7285   64.9245 H           1 DAN       0.0632
     24 H4         27.6194   18.4445   63.7318 H           1 DAN       0.0697
     25 H5         29.6503   18.9838   62.3491 H           1 DAN       0.0650
     26 H6         28.5863   19.8700   60.4077 H           1 DAN       0.0643
     27 H7         26.5044   18.6524   60.1152 H           1 DAN       0.0584
     28 H8         26.2904   18.4698   61.8595 H           1 DAN       0.0584
     29 H9         31.9807   15.4835   65.5037 H           1 DAN       0.0467
     30 H10        30.6100   15.3360   64.3828 H           1 DAN       0.0467
     31 H11        30.3286   15.3742   66.1378 H           1 DAN       0.0467
     32 H12        28.8600   17.0726   65.0232 H           1 DAN       0.1858
     33 H13        28.8816   21.3888   66.2129 H           1 DAN       0.2127
     34 H14        29.7906   21.2590   61.7519 H           1 DAN       0.2100
     35 H15        26.7738   21.0508   60.4227 H           1 DAN       0.2100
     36 H16        28.1343   17.2006   61.9149 H           1 DAN       0.2095
@<TRIPOS>BOND
     1     1    14  ar
     2     1    13  ar
     3     1     2   1
     4     2    16   1
     5     2     3   2
     6     3     4   1
     7     4    15   1
     8     4     5   1
     9     5    12   1
    10     5     6   1
    11     6    16   1
    12     6     7   1
    13     7    17   1
    14     7     8   1
    15     8    18   1
    16     8     9   1
    17     9    19   1
    18    12    10  am
    19    10    20   2
    20    10    11   1
    21     3    21   1
    22     4    22   1
    23     5    23   1
    24     6    24   1
    25     7    25   1
    26     8    26   1
    27     9    27   1
    28     9    28   1
    29    11    29   1
    30    11    30   1
    31    11    31   1
    32    12    32   1
    33    15    33   1
    34    17    34   1
    35    18    35   1
    36    19    36   1
@<TRIPOS>SUBSTRUCTURE
     1  DAN      1

