@<TRIPOS>MOLECULE
1f8b_ligand_038
    36    36
SMALL
GAST_HUCK
****
This file was generated by PARSER (from files_GN.cpp)

@<TRIPOS>ATOM
      1 C1         25.7909   19.3975   62.5670 C.2         1 DAN       0.0809
      2 C2         25.9587   18.0353   62.3861 C.2         1 DAN       0.1088
      3 C3         25.4383   17.1132   63.2214 C.2         1 DAN      -0.0276
      4 C4         25.6179   15.6914   62.9588 C.3         1 DAN       0.1003
      5 C5         25.7857   15.3299   61.4372 C.3         1 DAN       0.1064
      6 C6         26.0489   16.5950   60.5373 C.3         1 DAN       0.1321
      7 C7         26.8830   16.2764   59.2559 C.3         1 DAN       0.1154
      8 C8         26.7533   17.3294   58.1114 C.3         1 DAN       0.1068
      9 C9         27.5766   18.6297   58.3155 C.3         1 DAN       0.0727
     10 C10        23.4829   14.8497   60.6310 C.2         1 DAN       0.1734
     11 C11        22.5964   13.8515   60.0753 C.3         1 DAN       0.0257
     12 N5         24.7299   14.4963   60.9236 N.am        1 DAN      -0.2770
     13 O1A        24.8576   19.9204   63.4000 O.co2       1 DAN      -0.5623
     14 O1B        26.5534   20.2837   61.8826 O.co2       1 DAN      -0.5623
     15 O4         26.7763   15.2723   63.6966 O.3         1 DAN      -0.3807
     16 O6         26.6880   17.6298   61.3243 O.3         1 DAN      -0.3189
     17 O7         28.2654   16.0929   59.5891 O.3         1 DAN      -0.3861
     18 O8         27.1388   16.6968   56.8925 O.3         1 DAN      -0.3869
     19 O9         27.9208   19.2305   57.0656 O.3         1 DAN      -0.3924
     20 O10        23.0553   15.9795   60.8247 O.2         1 DAN      -0.3974
     21 H1         24.9179   17.3881   64.0232 H           1 DAN       0.0480
     22 H2         24.7648   15.1514   63.3801 H           1 DAN       0.0740
     23 H3         26.6742   14.6939   61.3758 H           1 DAN       0.0632
     24 H4         25.0927   16.9951   60.1888 H           1 DAN       0.0697
     25 H5         26.5159   15.3272   58.8502 H           1 DAN       0.0650
     26 H6         25.6940   17.6033   58.0024 H           1 DAN       0.0643
     27 H7         28.5023   18.4246   58.8568 H           1 DAN       0.0584
     28 H8         26.9908   19.3518   58.8863 H           1 DAN       0.0584
     29 H9         21.6334   14.2831   59.7893 H           1 DAN       0.0467
     30 H10        22.4247   13.0698   60.8187 H           1 DAN       0.0467
     31 H11        23.0525   13.4050   59.1860 H           1 DAN       0.0467
     32 H12        24.9530   13.5637   60.7503 H           1 DAN       0.1858
     33 H13        26.5366   15.3339   64.6500 H           1 DAN       0.2127
     34 H14        28.3133   15.2478   60.0787 H           1 DAN       0.2100
     35 H15        26.7602   17.2487   56.1737 H           1 DAN       0.2100
     36 H16        28.6833   18.7069   56.7397 H           1 DAN       0.2095
@<TRIPOS>BOND
     1     1    14  ar
     2     1    13  ar
     3     1     2   1
     4     2    16   1
     5     2     3   2
     6     3     4   1
     7     4    15   1
     8     4     5   1
     9     5    12   1
    10     5     6   1
    11     6    16   1
    12     6     7   1
    13     7    17   1
    14     7     8   1
    15     8    18   1
    16     8     9   1
    17     9    19   1
    18    12    10  am
    19    10    20   2
    20    10    11   1
    21     3    21   1
    22     4    22   1
    23     5    23   1
    24     6    24   1
    25     7    25   1
    26     8    26   1
    27     9    27   1
    28     9    28   1
    29    11    29   1
    30    11    30   1
    31    11    31   1
    32    12    32   1
    33    15    33   1
    34    17    34   1
    35    18    35   1
    36    19    36   1
@<TRIPOS>SUBSTRUCTURE
     1  DAN      1

