@<TRIPOS>MOLECULE
1f8b_ligand_011
    36    36
SMALL
GAST_HUCK
****
This file was generated by PARSER (from files_GN.cpp)

@<TRIPOS>ATOM
      1 C1         24.2708   20.0679   64.8127 C.2         1 DAN       0.0809
      2 C2         25.2822   19.2058   64.4396 C.2         1 DAN       0.1088
      3 C3         25.0864   18.0867   63.7126 C.2         1 DAN      -0.0276
      4 C4         26.2112   17.3319   63.1521 C.3         1 DAN       0.1003
      5 C5         27.6208   17.7306   63.7003 C.3         1 DAN       0.1064
      6 C6         27.6385   19.2626   64.0176 C.3         1 DAN       0.1321
      7 C7         28.9043   19.7779   64.7782 C.3         1 DAN       0.1154
      8 C8         30.1449   20.1608   63.9127 C.3         1 DAN       0.1068
      9 C9         29.8361   20.8559   62.5614 C.3         1 DAN       0.0727
     10 C10        29.6886   16.6205   62.8920 C.2         1 DAN       0.1734
     11 C11        30.5903   16.4365   61.7774 C.3         1 DAN       0.0257
     12 N5         28.6150   17.3821   62.7253 N.am        1 DAN      -0.2770
     13 O1A        23.0106   19.6660   65.1352 O.co2       1 DAN      -0.5623
     14 O1B        24.5541   21.3889   64.9378 O.co2       1 DAN      -0.5623
     15 O4         26.0180   15.9271   63.3643 O.3         1 DAN      -0.3807
     16 O6         26.5136   19.5277   64.8849 O.3         1 DAN      -0.3189
     17 O7         28.5556   20.9303   65.5679 O.3         1 DAN      -0.3861
     18 O8         31.0183   20.9850   64.6798 O.3         1 DAN      -0.3869
     19 O9         28.7128   21.7324   62.6664 O.3         1 DAN      -0.3924
     20 O10        29.9647   16.1195   63.9772 O.2         1 DAN      -0.3974
     21 H1         24.1651   17.8439   63.3990 H           1 DAN       0.0480
     22 H2         26.1879   17.5161   62.0728 H           1 DAN       0.0740
     23 H3         27.7780   17.1941   64.6482 H           1 DAN       0.0632
     24 H4         27.5169   19.8410   63.0961 H           1 DAN       0.0697
     25 H5         29.2255   19.0066   65.4917 H           1 DAN       0.0650
     26 H6         30.7071   19.2545   63.6959 H           1 DAN       0.0643
     27 H7         29.6156   20.1179   61.7939 H           1 DAN       0.0584
     28 H8         30.7004   21.4424   62.2332 H           1 DAN       0.0584
     29 H9         31.4721   15.8587   62.0663 H           1 DAN       0.0467
     30 H10        30.9258   17.4088   61.4074 H           1 DAN       0.0467
     31 H11        30.0752   15.9054   60.9732 H           1 DAN       0.0467
     32 H12        28.4881   17.7541   61.8368 H           1 DAN       0.1858
     33 H13        25.1557   15.7191   62.9388 H           1 DAN       0.2127
     34 H14        27.9416   20.5954   66.2651 H           1 DAN       0.2100
     35 H15        30.8113   21.9087   64.4286 H           1 DAN       0.2100
     36 H16        28.6800   22.2023   61.8033 H           1 DAN       0.2095
@<TRIPOS>BOND
     1     1    14  ar
     2     1    13  ar
     3     1     2   1
     4     2    16   1
     5     2     3   2
     6     3     4   1
     7     4    15   1
     8     4     5   1
     9     5    12   1
    10     5     6   1
    11     6    16   1
    12     6     7   1
    13     7    17   1
    14     7     8   1
    15     8    18   1
    16     8     9   1
    17     9    19   1
    18    12    10  am
    19    10    20   2
    20    10    11   1
    21     3    21   1
    22     4    22   1
    23     5    23   1
    24     6    24   1
    25     7    25   1
    26     8    26   1
    27     9    27   1
    28     9    28   1
    29    11    29   1
    30    11    30   1
    31    11    31   1
    32    12    32   1
    33    15    33   1
    34    17    34   1
    35    18    35   1
    36    19    36   1
@<TRIPOS>SUBSTRUCTURE
     1  DAN      1

