@<TRIPOS>MOLECULE
1f8b_ligand_032
    36    36
SMALL
GAST_HUCK
****
This file was generated by PARSER (from files_GN.cpp)

@<TRIPOS>ATOM
      1 C1         24.2775   20.1267   65.2974 C.2         1 DAN       0.0809
      2 C2         25.3949   19.3365   65.5088 C.2         1 DAN       0.1088
      3 C3         25.5000   18.5086   66.5626 C.2         1 DAN      -0.0276
      4 C4         26.6969   17.7222   66.8248 C.3         1 DAN       0.1003
      5 C5         27.7193   17.7044   65.6448 C.3         1 DAN       0.1064
      6 C6         27.7216   19.0793   64.8889 C.3         1 DAN       0.1321
      7 C7         28.4353   20.2904   65.5850 C.3         1 DAN       0.1154
      8 C8         29.2494   21.2513   64.6462 C.3         1 DAN       0.1068
      9 C9         28.8736   21.2545   63.1278 C.3         1 DAN       0.0727
     10 C10        26.4716   16.3176   63.9575 C.2         1 DAN       0.1734
     11 C11        26.5188   15.1663   63.0921 C.3         1 DAN       0.0257
     12 N5         27.5193   16.5971   64.7347 N.am        1 DAN      -0.2770
     13 O1A        23.0420   19.7511   65.7002 O.co2       1 DAN      -0.5623
     14 O1B        24.3811   21.1996   64.4843 O.co2       1 DAN      -0.5623
     15 O4         27.2969   18.2233   68.0184 O.3         1 DAN      -0.3807
     16 O6         26.3590   19.4270   64.5536 O.3         1 DAN      -0.3189
     17 O7         27.4996   21.0639   66.3469 O.3         1 DAN      -0.3861
     18 O8         29.1688   22.5785   65.1737 O.3         1 DAN      -0.3869
     19 O9         29.8211   20.4951   62.3781 O.3         1 DAN      -0.3924
     20 O10        25.4415   16.9713   63.9483 O.2         1 DAN      -0.3974
     21 H1         24.7762   18.4769   67.2449 H           1 DAN       0.0480
     22 H2         26.3988   16.6975   67.0473 H           1 DAN       0.0740
     23 H3         28.7197   17.5533   66.0614 H           1 DAN       0.0632
     24 H4         28.2318   18.8777   63.9472 H           1 DAN       0.0697
     25 H5         29.1487   19.9036   66.3145 H           1 DAN       0.0650
     26 H6         30.3031   20.9670   64.7348 H           1 DAN       0.0643
     27 H7         28.8775   22.2665   62.7259 H           1 DAN       0.0584
     28 H8         27.8759   20.8497   62.9479 H           1 DAN       0.0584
     29 H9         25.6169   15.0998   62.4732 H           1 DAN       0.0467
     30 H10        26.5769   14.2677   63.7077 H           1 DAN       0.0467
     31 H11        27.3893   15.2322   62.4326 H           1 DAN       0.0467
     32 H12        28.2863   15.9996   64.6473 H           1 DAN       0.1858
     33 H13        27.4920   19.1677   67.8488 H           1 DAN       0.2127
     34 H14        28.0350   21.6431   66.9275 H           1 DAN       0.2100
     35 H15        30.0106   23.0122   64.9337 H           1 DAN       0.2100
     36 H16        29.9465   20.9775   61.5327 H           1 DAN       0.2095
@<TRIPOS>BOND
     1     1    14  ar
     2     1    13  ar
     3     1     2   1
     4     2    16   1
     5     2     3   2
     6     3     4   1
     7     4    15   1
     8     4     5   1
     9     5    12   1
    10     5     6   1
    11     6    16   1
    12     6     7   1
    13     7    17   1
    14     7     8   1
    15     8    18   1
    16     8     9   1
    17     9    19   1
    18    12    10  am
    19    10    20   2
    20    10    11   1
    21     3    21   1
    22     4    22   1
    23     5    23   1
    24     6    24   1
    25     7    25   1
    26     8    26   1
    27     9    27   1
    28     9    28   1
    29    11    29   1
    30    11    30   1
    31    11    31   1
    32    12    32   1
    33    15    33   1
    34    17    34   1
    35    18    35   1
    36    19    36   1
@<TRIPOS>SUBSTRUCTURE
     1  DAN      1

