@<TRIPOS>MOLECULE
1f8b_ligand_017
    36    36
SMALL
GAST_HUCK
****
This file was generated by PARSER (from files_GN.cpp)

@<TRIPOS>ATOM
      1 C1         23.8791   20.1206   64.8675 C.2         1 DAN       0.0809
      2 C2         25.1967   19.7132   64.9608 C.2         1 DAN       0.1088
      3 C3         25.5699   18.4572   65.2867 C.2         1 DAN      -0.0276
      4 C4         26.9662   18.0691   65.4553 C.3         1 DAN       0.1003
      5 C5         28.0042   19.1811   65.0841 C.3         1 DAN       0.1064
      6 C6         27.4000   20.5996   65.3326 C.3         1 DAN       0.1321
      7 C7         27.3092   21.0449   66.8320 C.3         1 DAN       0.1154
      8 C8         28.6143   21.6536   67.4458 C.3         1 DAN       0.1068
      9 C9         29.4231   22.6326   66.5479 C.3         1 DAN       0.0727
     10 C10        29.5371   19.1056   63.1349 C.2         1 DAN       0.1734
     11 C11        29.6466   19.0233   61.6917 C.3         1 DAN       0.0257
     12 N5         28.3293   19.0708   63.6851 N.am        1 DAN      -0.2770
     13 O1A        23.5402   21.1647   64.0747 O.co2       1 DAN      -0.5623
     14 O1B        22.8930   19.5834   65.6212 O.co2       1 DAN      -0.5623
     15 O4         27.1333   17.6661   66.8129 O.3         1 DAN      -0.3807
     16 O6         26.1115   20.6639   64.6883 O.3         1 DAN      -0.3189
     17 O7         26.1988   21.9288   67.0194 O.3         1 DAN      -0.3861
     18 O8         28.2926   22.3038   68.6792 O.3         1 DAN      -0.3869
     19 O9         28.5957   23.3995   65.6709 O.3         1 DAN      -0.3924
     20 O10        30.5575   19.2323   63.8014 O.2         1 DAN      -0.3974
     21 H1         24.8753   17.7682   65.4605 H           1 DAN       0.0480
     22 H2         27.1439   17.1812   64.8370 H           1 DAN       0.0740
     23 H3         28.9012   19.0594   65.6968 H           1 DAN       0.0632
     24 H4         28.0114   21.3336   64.8033 H           1 DAN       0.0697
     25 H5         27.0508   20.1691   67.4358 H           1 DAN       0.0650
     26 H6         29.2839   20.8275   67.7057 H           1 DAN       0.0643
     27 H7         30.1264   22.0656   65.9340 H           1 DAN       0.0584
     28 H8         30.0087   23.3168   67.1704 H           1 DAN       0.0584
     29 H9         30.6869   19.0913   61.3605 H           1 DAN       0.0467
     30 H10        29.0840   19.8436   61.2367 H           1 DAN       0.0467
     31 H11        29.2342   18.0711   61.3466 H           1 DAN       0.0467
     32 H12        27.5808   18.9896   63.0727 H           1 DAN       0.1858
     33 H13        28.0006   17.2060   66.8438 H           1 DAN       0.2127
     34 H14        26.5151   22.8382   66.8468 H           1 DAN       0.2100
     35 H15        27.9155   23.1773   68.4377 H           1 DAN       0.2100
     36 H16        28.0615   23.9799   66.2487 H           1 DAN       0.2095
@<TRIPOS>BOND
     1     1    14  ar
     2     1    13  ar
     3     1     2   1
     4     2    16   1
     5     2     3   2
     6     3     4   1
     7     4    15   1
     8     4     5   1
     9     5    12   1
    10     5     6   1
    11     6    16   1
    12     6     7   1
    13     7    17   1
    14     7     8   1
    15     8    18   1
    16     8     9   1
    17     9    19   1
    18    12    10  am
    19    10    20   2
    20    10    11   1
    21     3    21   1
    22     4    22   1
    23     5    23   1
    24     6    24   1
    25     7    25   1
    26     8    26   1
    27     9    27   1
    28     9    28   1
    29    11    29   1
    30    11    30   1
    31    11    31   1
    32    12    32   1
    33    15    33   1
    34    17    34   1
    35    18    35   1
    36    19    36   1
@<TRIPOS>SUBSTRUCTURE
     1  DAN      1

