@<TRIPOS>MOLECULE
1f8b_ligand_035
    36    36
SMALL
GAST_HUCK
****
This file was generated by PARSER (from files_GN.cpp)

@<TRIPOS>ATOM
      1 C1         23.4935   20.1735   64.8667 C.2         1 DAN       0.0809
      2 C2         24.2372   19.3006   65.6199 C.2         1 DAN       0.1088
      3 C3         23.8584   18.8961   66.8435 C.2         1 DAN      -0.0276
      4 C4         24.7111   18.0344   67.6376 C.3         1 DAN       0.1003
      5 C5         26.2219   18.3769   67.4472 C.3         1 DAN       0.1064
      6 C6         26.5386   18.5082   65.9116 C.3         1 DAN       0.1321
      7 C7         27.7699   19.4007   65.5411 C.3         1 DAN       0.1154
      8 C8         27.7138   20.9016   65.9817 C.3         1 DAN       0.1068
      9 C9         28.6818   21.8162   65.1899 C.3         1 DAN       0.0727
     10 C10        27.8947   17.4527   69.0238 C.2         1 DAN       0.1734
     11 C11        28.6087   16.2793   69.4625 C.3         1 DAN       0.0257
     12 N5         27.0213   17.3384   68.0346 N.am        1 DAN      -0.2770
     13 O1A        22.2024   19.9304   64.5308 O.co2       1 DAN      -0.5623
     14 O1B        24.0993   21.1857   64.2153 O.co2       1 DAN      -0.5623
     15 O4         24.3688   18.1084   69.0203 O.3         1 DAN      -0.3807
     16 O6         25.4245   18.9367   65.0936 O.3         1 DAN      -0.3189
     17 O7         28.9710   18.8050   66.0344 O.3         1 DAN      -0.3861
     18 O8         26.4053   21.4340   65.8030 O.3         1 DAN      -0.3869
     19 O9         30.0489   21.4892   65.4037 O.3         1 DAN      -0.3924
     20 O10        28.1331   18.5278   69.5571 O.2         1 DAN      -0.3974
     21 H1         23.0158   19.2542   67.2493 H           1 DAN       0.0480
     22 H2         24.5255   17.0116   67.3107 H           1 DAN       0.0740
     23 H3         26.3952   19.3422   67.9343 H           1 DAN       0.0632
     24 H4         26.7654   17.5018   65.5320 H           1 DAN       0.0697
     25 H5         27.8575   19.3778   64.4482 H           1 DAN       0.0650
     26 H6         27.9624   20.9818   67.0437 H           1 DAN       0.0643
     27 H7         28.5355   22.8494   65.5100 H           1 DAN       0.0584
     28 H8         28.4734   21.7523   64.1192 H           1 DAN       0.0584
     29 H9         29.3223   16.5109   70.2614 H           1 DAN       0.0467
     30 H10        29.1645   15.8464   68.6266 H           1 DAN       0.0467
     31 H11        27.9055   15.5321   69.8404 H           1 DAN       0.0467
     32 H12        26.9032   16.4520   67.6544 H           1 DAN       0.1858
     33 H13        24.5342   19.0355   69.2907 H           1 DAN       0.2127
     34 H14        28.9127   18.8635   67.0089 H           1 DAN       0.2100
     35 H15        25.8998   21.1490   66.5969 H           1 DAN       0.2100
     36 H16        30.5489   22.1762   64.9087 H           1 DAN       0.2095
@<TRIPOS>BOND
     1     1    14  ar
     2     1    13  ar
     3     1     2   1
     4     2    16   1
     5     2     3   2
     6     3     4   1
     7     4    15   1
     8     4     5   1
     9     5    12   1
    10     5     6   1
    11     6    16   1
    12     6     7   1
    13     7    17   1
    14     7     8   1
    15     8    18   1
    16     8     9   1
    17     9    19   1
    18    12    10  am
    19    10    20   2
    20    10    11   1
    21     3    21   1
    22     4    22   1
    23     5    23   1
    24     6    24   1
    25     7    25   1
    26     8    26   1
    27     9    27   1
    28     9    28   1
    29    11    29   1
    30    11    30   1
    31    11    31   1
    32    12    32   1
    33    15    33   1
    34    17    34   1
    35    18    35   1
    36    19    36   1
@<TRIPOS>SUBSTRUCTURE
     1  DAN      1

