@<TRIPOS>MOLECULE
1f8b_ligand_067
    36    36
SMALL
GAST_HUCK
****
This file was generated by PARSER (from files_GN.cpp)

@<TRIPOS>ATOM
      1 C1         28.1377   14.1888   60.9088 C.2         1 DAN       0.0809
      2 C2         28.4230   15.5345   61.1149 C.2         1 DAN       0.1088
      3 C3         27.6997   16.5138   60.5343 C.2         1 DAN      -0.0276
      4 C4         27.8747   17.9128   60.8731 C.3         1 DAN       0.1003
      5 C5         29.2767   18.2072   61.4716 C.3         1 DAN       0.1064
      6 C6         29.6589   17.0965   62.4973 C.3         1 DAN       0.1321
      7 C7         31.0848   17.2181   63.1519 C.3         1 DAN       0.1154
      8 C8         32.2969   17.3213   62.1459 C.3         1 DAN       0.1068
      9 C9         33.6720   17.4870   62.8615 C.3         1 DAN       0.0727
     10 C10        28.8803   20.1009   63.0052 C.2         1 DAN       0.1734
     11 C11        29.1732   21.4741   63.2957 C.3         1 DAN       0.0257
     12 N5         29.4267   19.5583   61.9343 N.am        1 DAN      -0.2770
     13 O1A        27.8871   13.3633   61.9637 O.co2       1 DAN      -0.5623
     14 O1B        28.0151   13.6693   59.6574 O.co2       1 DAN      -0.5623
     15 O4         27.6614   18.7238   59.7200 O.3         1 DAN      -0.3807
     16 O6         29.5458   15.8033   61.8525 O.3         1 DAN      -0.3189
     17 O7         31.1180   18.3517   64.0162 O.3         1 DAN      -0.3861
     18 O8         32.3718   16.1610   61.3031 O.3         1 DAN      -0.3869
     19 O9         34.5885   18.1296   61.9626 O.3         1 DAN      -0.3924
     20 O10        28.1595   19.4757   63.7839 O.2         1 DAN      -0.3974
     21 H1         26.8991   16.2576   59.9833 H           1 DAN       0.0480
     22 H2         27.0877   18.1616   61.5865 H           1 DAN       0.0740
     23 H3         29.9811   18.1139   60.6440 H           1 DAN       0.0632
     24 H4         28.9336   17.1155   63.3219 H           1 DAN       0.0697
     25 H5         31.2372   16.3491   63.7911 H           1 DAN       0.0650
     26 H6         32.1296   18.1979   61.5037 H           1 DAN       0.0643
     27 H7         34.0413   16.5000   63.1672 H           1 DAN       0.0584
     28 H8         33.5718   18.1187   63.7512 H           1 DAN       0.0584
     29 H9         28.7027   21.8024   64.2269 H           1 DAN       0.0467
     30 H10        28.8050   22.1004   62.4784 H           1 DAN       0.0467
     31 H11        30.2537   21.6057   63.3927 H           1 DAN       0.0467
     32 H12        29.9916   20.1340   61.3954 H           1 DAN       0.1858
     33 H13        28.3041   18.4108   59.0467 H           1 DAN       0.2127
     34 H14        30.5356   18.0976   64.7665 H           1 DAN       0.2100
     35 H15        31.5327   16.1547   60.7937 H           1 DAN       0.2100
     36 H16        35.1552   17.3981   61.6130 H           1 DAN       0.2095
@<TRIPOS>BOND
     1     1    14  ar
     2     1    13  ar
     3     1     2   1
     4     2    16   1
     5     2     3   2
     6     3     4   1
     7     4    15   1
     8     4     5   1
     9     5    12   1
    10     5     6   1
    11     6    16   1
    12     6     7   1
    13     7    17   1
    14     7     8   1
    15     8    18   1
    16     8     9   1
    17     9    19   1
    18    12    10  am
    19    10    20   2
    20    10    11   1
    21     3    21   1
    22     4    22   1
    23     5    23   1
    24     6    24   1
    25     7    25   1
    26     8    26   1
    27     9    27   1
    28     9    28   1
    29    11    29   1
    30    11    30   1
    31    11    31   1
    32    12    32   1
    33    15    33   1
    34    17    34   1
    35    18    35   1
    36    19    36   1
@<TRIPOS>SUBSTRUCTURE
     1  DAN      1

