@<TRIPOS>MOLECULE
1f8b_ligand_000
    36    36
SMALL
GAST_HUCK
****
This file was generated by PARSER (from files_GN.cpp)

@<TRIPOS>ATOM
      1 C1         24.2686   20.0439   65.0010 C.2         1 DAN       0.0809
      2 C2         25.4849   19.3688   64.9821 C.2         1 DAN       0.1088
      3 C3         25.7692   18.3560   65.8153 C.2         1 DAN      -0.0276
      4 C4         27.0606   17.6902   65.7938 C.3         1 DAN       0.1003
      5 C5         28.2002   18.5450   65.1572 C.3         1 DAN       0.1064
      6 C6         27.6611   19.2096   63.8503 C.3         1 DAN       0.1321
      7 C7         28.5411   20.3243   63.1950 C.3         1 DAN       0.1154
      8 C8         30.0389   20.0167   62.9007 C.3         1 DAN       0.1068
      9 C9         30.2827   18.9812   61.7733 C.3         1 DAN       0.0727
     10 C10        30.2712   17.3591   65.7849 C.2         1 DAN       0.1734
     11 C11        31.2228   16.3323   65.4249 C.3         1 DAN       0.0257
     12 N5         29.3187   17.6695   64.9124 N.am        1 DAN      -0.2770
     13 O1A        23.1383   19.5549   65.5624 O.co2       1 DAN      -0.5623
     14 O1B        24.1680   21.2280   64.3568 O.co2       1 DAN      -0.5623
     15 O4         27.4248   17.3179   67.1176 O.3         1 DAN      -0.3807
     16 O6         26.4164   19.8808   64.1531 O.3         1 DAN      -0.3189
     17 O7         27.8838   20.7222   61.9859 O.3         1 DAN      -0.3861
     18 O8         30.6961   21.2483   62.5994 O.3         1 DAN      -0.3869
     19 O9         31.6646   18.9344   61.4184 O.3         1 DAN      -0.3924
     20 O10        30.3360   17.8841   66.8845 O.2         1 DAN      -0.3974
     21 H1         25.0747   17.9962   66.4282 H           1 DAN       0.0480
     22 H2         26.9367   16.7683   65.2147 H           1 DAN       0.0740
     23 H3         28.4758   19.3443   65.8507 H           1 DAN       0.0632
     24 H4         27.4623   18.4257   63.1134 H           1 DAN       0.0697
     25 H5         28.5251   21.1915   63.8651 H           1 DAN       0.0650
     26 H6         30.5190   19.6520   63.8142 H           1 DAN       0.0643
     27 H7         29.7121   19.2386   60.8805 H           1 DAN       0.0584
     28 H8         29.9859   17.9863   62.0972 H           1 DAN       0.0584
     29 H9         31.9256   16.1480   66.2371 H           1 DAN       0.0467
     30 H10        31.7815   16.6448   64.5419 H           1 DAN       0.0467
     31 H11        30.6945   15.4015   65.2057 H           1 DAN       0.0467
     32 H12        29.3059   17.1764   64.0768 H           1 DAN       0.1858
     33 H13        26.8991   16.5104   67.2982 H           1 DAN       0.2127
     34 H14        28.4688   21.3769   61.5482 H           1 DAN       0.2100
     35 H15        30.5673   21.4021   61.6401 H           1 DAN       0.2100
     36 H16        31.7937   19.7270   60.8583 H           1 DAN       0.2095
@<TRIPOS>BOND
     1     1    14  ar
     2     1    13  ar
     3     1     2   1
     4     2    16   1
     5     2     3   2
     6     3     4   1
     7     4    15   1
     8     4     5   1
     9     5    12   1
    10     5     6   1
    11     6    16   1
    12     6     7   1
    13     7    17   1
    14     7     8   1
    15     8    18   1
    16     8     9   1
    17     9    19   1
    18    12    10  am
    19    10    20   2
    20    10    11   1
    21     3    21   1
    22     4    22   1
    23     5    23   1
    24     6    24   1
    25     7    25   1
    26     8    26   1
    27     9    27   1
    28     9    28   1
    29    11    29   1
    30    11    30   1
    31    11    31   1
    32    12    32   1
    33    15    33   1
    34    17    34   1
    35    18    35   1
    36    19    36   1
@<TRIPOS>SUBSTRUCTURE
     1  DAN      1

