@<TRIPOS>MOLECULE
1f8b_ligand_039
    36    36
SMALL
GAST_HUCK
****
This file was generated by PARSER (from files_GN.cpp)

@<TRIPOS>ATOM
      1 C1         24.6781   15.8110   71.7980 C.2         1 DAN       0.0809
      2 C2         24.5758   16.7552   70.8084 C.2         1 DAN       0.1088
      3 C3         25.6572   17.1227   70.0852 C.2         1 DAN      -0.0276
      4 C4         25.5704   18.0689   68.9941 C.3         1 DAN       0.1003
      5 C5         24.1286   18.3411   68.4408 C.3         1 DAN       0.1064
      6 C6         22.9963   17.5992   69.2508 C.3         1 DAN       0.1321
      7 C7         21.6352   18.3702   69.2179 C.3         1 DAN       0.1154
      8 C8         20.3394   17.4934   69.1715 C.3         1 DAN       0.1068
      9 C9         19.0725   18.2624   68.7321 C.3         1 DAN       0.0727
     10 C10        23.5483   18.5296   66.0263 C.2         1 DAN       0.1734
     11 C11        23.3753   17.7827   64.7961 C.3         1 DAN       0.0257
     12 N5         24.0464   17.8919   67.0737 N.am        1 DAN      -0.2770
     13 O1A        24.9324   16.2339   73.0752 O.co2       1 DAN      -0.5623
     14 O1B        24.0491   14.6224   71.6556 O.co2       1 DAN      -0.5623
     15 O4         26.1944   19.2645   69.4536 O.3         1 DAN      -0.3807
     16 O6         23.3667   17.3384   70.6226 O.3         1 DAN      -0.3189
     17 O7         21.5770   19.2644   70.3415 O.3         1 DAN      -0.3861
     18 O8         20.5380   16.4490   68.2271 O.3         1 DAN      -0.3869
     19 O9         18.5949   19.1646   69.7323 O.3         1 DAN      -0.3924
     20 O10        23.1205   19.6760   66.0910 O.2         1 DAN      -0.3974
     21 H1         26.5466   16.7019   70.2896 H           1 DAN       0.0480
     22 H2         26.2046   17.6753   68.2027 H           1 DAN       0.0740
     23 H3         23.9514   19.4201   68.5029 H           1 DAN       0.0632
     24 H4         22.8576   16.6128   68.7985 H           1 DAN       0.0697
     25 H5         21.6084   19.0002   68.3234 H           1 DAN       0.0650
     26 H6         20.1572   17.0400   70.1442 H           1 DAN       0.0643
     27 H7         18.2629   17.5649   68.5090 H           1 DAN       0.0584
     28 H8         19.2734   18.8421   67.8213 H           1 DAN       0.0584
     29 H9         22.8976   18.3907   64.0167 H           1 DAN       0.0467
     30 H10        22.7337   16.9181   64.9851 H           1 DAN       0.0467
     31 H11        24.3386   17.4360   64.4247 H           1 DAN       0.0467
     32 H12        24.2914   16.9654   66.9194 H           1 DAN       0.1858
     33 H13        25.5811   19.6553   70.1215 H           1 DAN       0.2127
     34 H14        21.5290   18.6778   71.1361 H           1 DAN       0.2100
     35 H15        20.9115   15.7013   68.7538 H           1 DAN       0.2100
     36 H16        18.2601   18.5877   70.4456 H           1 DAN       0.2095
@<TRIPOS>BOND
     1     1    14  ar
     2     1    13  ar
     3     1     2   1
     4     2    16   1
     5     2     3   2
     6     3     4   1
     7     4    15   1
     8     4     5   1
     9     5    12   1
    10     5     6   1
    11     6    16   1
    12     6     7   1
    13     7    17   1
    14     7     8   1
    15     8    18   1
    16     8     9   1
    17     9    19   1
    18    12    10  am
    19    10    20   2
    20    10    11   1
    21     3    21   1
    22     4    22   1
    23     5    23   1
    24     6    24   1
    25     7    25   1
    26     8    26   1
    27     9    27   1
    28     9    28   1
    29    11    29   1
    30    11    30   1
    31    11    31   1
    32    12    32   1
    33    15    33   1
    34    17    34   1
    35    18    35   1
    36    19    36   1
@<TRIPOS>SUBSTRUCTURE
     1  DAN      1

