@<TRIPOS>MOLECULE
1f8b_ligand_004
    36    36
SMALL
GAST_HUCK
****
This file was generated by PARSER (from files_GN.cpp)

@<TRIPOS>ATOM
      1 C1         23.7906   19.7840   64.5488 C.2         1 DAN       0.0809
      2 C2         24.1717   18.5591   64.0306 C.2         1 DAN       0.1088
      3 C3         23.3632   17.8127   63.2520 C.2         1 DAN      -0.0276
      4 C4         23.8549   16.5642   62.6967 C.3         1 DAN       0.1003
      5 C5         25.3546   16.6610   62.2552 C.3         1 DAN       0.1064
      6 C6         26.1812   17.6139   63.2086 C.3         1 DAN       0.1321
      7 C7         27.5102   16.9690   63.7186 C.3         1 DAN       0.1154
      8 C8         28.1025   17.6612   64.9849 C.3         1 DAN       0.1068
      9 C9         29.4802   17.1024   65.4211 C.3         1 DAN       0.0727
     10 C10        26.2859   16.7792   59.9585 C.2         1 DAN       0.1734
     11 C11        26.2806   17.4905   58.7007 C.3         1 DAN       0.0257
     12 N5         25.4409   17.1587   60.9070 N.am        1 DAN      -0.2770
     13 O1A        24.6073   20.8595   64.4622 O.co2       1 DAN      -0.5623
     14 O1B        22.6217   19.9389   65.2168 O.co2       1 DAN      -0.5623
     15 O4         23.6971   15.5679   63.7078 O.3         1 DAN      -0.3807
     16 O6         25.3976   18.0813   64.3370 O.3         1 DAN      -0.3189
     17 O7         27.3292   15.5714   63.9673 O.3         1 DAN      -0.3861
     18 O8         28.2461   19.0641   64.7584 O.3         1 DAN      -0.3869
     19 O9         29.3645   15.8314   66.0535 O.3         1 DAN      -0.3924
     20 O10        27.0914   15.8744   60.1246 O.2         1 DAN      -0.3974
     21 H1         22.4609   18.1407   62.9830 H           1 DAN       0.0480
     22 H2         23.2252   16.2644   61.8527 H           1 DAN       0.0740
     23 H3         25.7557   15.6428   62.2920 H           1 DAN       0.0632
     24 H4         26.4671   18.5170   62.6550 H           1 DAN       0.0697
     25 H5         28.2440   17.0529   62.9137 H           1 DAN       0.0650
     26 H6         27.4074   17.5381   65.8188 H           1 DAN       0.0643
     27 H7         29.9484   17.7903   66.1278 H           1 DAN       0.0584
     28 H8         30.1338   17.0042   64.5530 H           1 DAN       0.0584
     29 H9         26.9976   17.0637   57.9902 H           1 DAN       0.0467
     30 H10        26.5449   18.5364   58.8691 H           1 DAN       0.0467
     31 H11        25.2842   17.4458   58.2579 H           1 DAN       0.0467
     32 H12        24.8498   17.8917   60.6812 H           1 DAN       0.1858
     33 H13        23.6835   14.7119   63.2286 H           1 DAN       0.2127
     34 H14        26.9126   15.4970   64.8482 H           1 DAN       0.2100
     35 H15        28.8370   19.1471   63.9811 H           1 DAN       0.2100
     36 H16        30.0194   15.8517   66.7812 H           1 DAN       0.2095
@<TRIPOS>BOND
     1     1    14  ar
     2     1    13  ar
     3     1     2   1
     4     2    16   1
     5     2     3   2
     6     3     4   1
     7     4    15   1
     8     4     5   1
     9     5    12   1
    10     5     6   1
    11     6    16   1
    12     6     7   1
    13     7    17   1
    14     7     8   1
    15     8    18   1
    16     8     9   1
    17     9    19   1
    18    12    10  am
    19    10    20   2
    20    10    11   1
    21     3    21   1
    22     4    22   1
    23     5    23   1
    24     6    24   1
    25     7    25   1
    26     8    26   1
    27     9    27   1
    28     9    28   1
    29    11    29   1
    30    11    30   1
    31    11    31   1
    32    12    32   1
    33    15    33   1
    34    17    34   1
    35    18    35   1
    36    19    36   1
@<TRIPOS>SUBSTRUCTURE
     1  DAN      1

