@<TRIPOS>MOLECULE
1f8b_ligand_047
    36    36
SMALL
GAST_HUCK
****
This file was generated by PARSER (from files_GN.cpp)

@<TRIPOS>ATOM
      1 C1         22.1813   19.6839   68.2610 C.2         1 DAN       0.0809
      2 C2         23.1983   19.7904   67.3294 C.2         1 DAN       0.1088
      3 C3         24.4357   20.1959   67.6699 C.2         1 DAN      -0.0276
      4 C4         25.4440   20.3444   66.6320 C.3         1 DAN       0.1003
      5 C5         25.3700   19.1802   65.5854 C.3         1 DAN       0.1064
      6 C6         23.9228   18.5632   65.4601 C.3         1 DAN       0.1321
      7 C7         23.4979   18.1999   63.9908 C.3         1 DAN       0.1154
      8 C8         23.8389   16.7411   63.5719 C.3         1 DAN       0.1068
      9 C9         23.6132   16.4113   62.0707 C.3         1 DAN       0.0727
     10 C10        27.6512   18.2270   65.6482 C.2         1 DAN       0.1734
     11 C11        28.4348   17.0496   65.9461 C.3         1 DAN       0.0257
     12 N5         26.3375   18.1580   65.8532 N.am        1 DAN      -0.2770
     13 O1A        22.4338   19.5337   69.5971 O.co2       1 DAN      -0.5623
     14 O1B        20.8875   19.6407   67.8455 O.co2       1 DAN      -0.5623
     15 O4         25.2089   21.6084   66.0027 O.3         1 DAN      -0.3807
     16 O6         22.9426   19.4495   66.0491 O.3         1 DAN      -0.3189
     17 O7         22.0902   18.4255   63.7999 O.3         1 DAN      -0.3861
     18 O8         25.2037   16.4325   63.8621 O.3         1 DAN      -0.3869
     19 O9         24.6551   16.9361   61.2587 O.3         1 DAN      -0.3924
     20 O10        28.1967   19.2316   65.2075 O.2         1 DAN      -0.3974
     21 H1         24.6805   20.3753   68.6102 H           1 DAN       0.0480
     22 H2         26.4373   20.3960   67.0980 H           1 DAN       0.0740
     23 H3         25.6411   19.6311   64.6239 H           1 DAN       0.0632
     24 H4         23.8743   17.6405   66.0444 H           1 DAN       0.0697
     25 H5         23.9922   18.8906   63.2959 H           1 DAN       0.0650
     26 H6         23.2186   16.0494   64.1600 H           1 DAN       0.0643
     27 H7         22.6717   16.8311   61.7247 H           1 DAN       0.0584
     28 H8         23.5783   15.3252   61.9299 H           1 DAN       0.0584
     29 H9         29.4921   17.1991   65.7331 H           1 DAN       0.0467
     30 H10        28.0762   16.2184   65.3461 H           1 DAN       0.0467
     31 H11        28.3319   16.7897   67.0022 H           1 DAN       0.0467
     32 H12        26.0014   17.3149   66.1934 H           1 DAN       0.1858
     33 H13        25.2647   22.2777   66.7246 H           1 DAN       0.2127
     34 H14        21.7175   17.5354   63.6279 H           1 DAN       0.2100
     35 H15        25.7215   17.1211   63.3892 H           1 DAN       0.2100
     36 H16        24.3104   17.7694   60.8379 H           1 DAN       0.2095
@<TRIPOS>BOND
     1     1    14  ar
     2     1    13  ar
     3     1     2   1
     4     2    16   1
     5     2     3   2
     6     3     4   1
     7     4    15   1
     8     4     5   1
     9     5    12   1
    10     5     6   1
    11     6    16   1
    12     6     7   1
    13     7    17   1
    14     7     8   1
    15     8    18   1
    16     8     9   1
    17     9    19   1
    18    12    10  am
    19    10    20   2
    20    10    11   1
    21     3    21   1
    22     4    22   1
    23     5    23   1
    24     6    24   1
    25     7    25   1
    26     8    26   1
    27     9    27   1
    28     9    28   1
    29    11    29   1
    30    11    30   1
    31    11    31   1
    32    12    32   1
    33    15    33   1
    34    17    34   1
    35    18    35   1
    36    19    36   1
@<TRIPOS>SUBSTRUCTURE
     1  DAN      1

