@<TRIPOS>MOLECULE
1f8b_ligand_030
    36    36
SMALL
GAST_HUCK
****
This file was generated by PARSER (from files_GN.cpp)

@<TRIPOS>ATOM
      1 C1         23.9579   20.0301   65.0493 C.2         1 DAN       0.0809
      2 C2         25.3097   19.7839   65.1947 C.2         1 DAN       0.1088
      3 C3         25.8301   18.5496   65.3392 C.2         1 DAN      -0.0276
      4 C4         27.2609   18.3119   65.5120 C.3         1 DAN       0.1003
      5 C5         28.1579   19.6085   65.5431 C.3         1 DAN       0.1064
      6 C6         27.3247   20.8856   65.9147 C.3         1 DAN       0.1321
      7 C7         27.1023   21.1133   67.4555 C.3         1 DAN       0.1154
      8 C8         25.6508   21.4097   67.9549 C.3         1 DAN       0.1068
      9 C9         24.9812   22.6891   67.3959 C.3         1 DAN       0.0727
     10 C10        28.4954   19.9163   63.0874 C.2         1 DAN       0.1734
     11 C11        29.4720   20.0145   62.0279 C.3         1 DAN       0.0257
     12 N5         28.9267   19.7787   64.3353 N.am        1 DAN      -0.2770
     13 O1A        23.0254   19.5103   65.8856 O.co2       1 DAN      -0.5623
     14 O1B        23.5490   21.0009   64.1865 O.co2       1 DAN      -0.5623
     15 O4         27.4447   17.5666   66.7170 O.3         1 DAN      -0.3807
     16 O6         26.1076   20.8701   65.1396 O.3         1 DAN      -0.3189
     17 O7         27.5951   20.0096   68.2227 O.3         1 DAN      -0.3861
     18 O8         24.7770   20.2993   67.7438 O.3         1 DAN      -0.3869
     19 O9         25.3246   22.9348   66.0390 O.3         1 DAN      -0.3924
     20 O10        27.3023   19.9383   62.8070 O.2         1 DAN      -0.3974
     21 H1         25.2274   17.7592   65.3218 H           1 DAN       0.0480
     22 H2         27.5953   17.6650   64.6934 H           1 DAN       0.0740
     23 H3         28.9234   19.4830   66.3173 H           1 DAN       0.0632
     24 H4         27.8788   21.7613   65.5635 H           1 DAN       0.0697
     25 H5         27.7179   21.9793   67.7382 H           1 DAN       0.0650
     26 H6         25.6967   21.5470   69.0416 H           1 DAN       0.0643
     27 H7         25.2660   23.5534   68.0048 H           1 DAN       0.0584
     28 H8         23.8932   22.5804   67.4583 H           1 DAN       0.0584
     29 H9         28.9942   20.0542   61.0437 H           1 DAN       0.0467
     30 H10        30.1232   19.1437   62.0547 H           1 DAN       0.0467
     31 H11        30.0773   20.9153   62.1534 H           1 DAN       0.0467
     32 H12        29.8901   19.7706   64.4431 H           1 DAN       0.1858
     33 H13        26.9862   16.7093   66.5791 H           1 DAN       0.2127
     34 H14        27.7573   20.3668   69.1216 H           1 DAN       0.2100
     35 H15        25.1563   19.5718   68.2821 H           1 DAN       0.2100
     36 H16        24.8959   23.7799   65.7954 H           1 DAN       0.2095
@<TRIPOS>BOND
     1     1    14  ar
     2     1    13  ar
     3     1     2   1
     4     2    16   1
     5     2     3   2
     6     3     4   1
     7     4    15   1
     8     4     5   1
     9     5    12   1
    10     5     6   1
    11     6    16   1
    12     6     7   1
    13     7    17   1
    14     7     8   1
    15     8    18   1
    16     8     9   1
    17     9    19   1
    18    12    10  am
    19    10    20   2
    20    10    11   1
    21     3    21   1
    22     4    22   1
    23     5    23   1
    24     6    24   1
    25     7    25   1
    26     8    26   1
    27     9    27   1
    28     9    28   1
    29    11    29   1
    30    11    30   1
    31    11    31   1
    32    12    32   1
    33    15    33   1
    34    17    34   1
    35    18    35   1
    36    19    36   1
@<TRIPOS>SUBSTRUCTURE
     1  DAN      1

