@<TRIPOS>MOLECULE
1f8b_ligand_045
    36    36
SMALL
GAST_HUCK
****
This file was generated by PARSER (from files_GN.cpp)

@<TRIPOS>ATOM
      1 C1         28.2413   19.1932   57.9493 C.2         1 DAN       0.0809
      2 C2         27.9167   19.0224   59.2595 C.2         1 DAN       0.1088
      3 C3         27.2251   19.9535   59.9428 C.2         1 DAN      -0.0276
      4 C4         26.9921   19.7702   61.3587 C.3         1 DAN       0.1003
      5 C5         26.7169   18.2801   61.7559 C.3         1 DAN       0.1064
      6 C6         27.1729   17.2664   60.6351 C.3         1 DAN       0.1321
      7 C7         27.5333   15.8473   61.1994 C.3         1 DAN       0.1154
      8 C8         26.7651   14.6578   60.5427 C.3         1 DAN       0.1068
      9 C9         26.9349   13.3131   61.2953 C.3         1 DAN       0.0727
     10 C10        24.7757   17.4264   63.0441 C.2         1 DAN       0.1734
     11 C11        23.3311   17.3207   63.1348 C.3         1 DAN       0.0257
     12 N5         25.3136   18.0677   62.0167 N.am        1 DAN      -0.2770
     13 O1A        27.2777   19.2157   56.9876 O.co2       1 DAN      -0.5623
     14 O1B        29.5298   19.4092   57.5760 O.co2       1 DAN      -0.5623
     15 O4         28.1602   20.2511   62.0367 O.3         1 DAN      -0.3807
     16 O6         28.2626   17.8478   59.8619 O.3         1 DAN      -0.3189
     17 O7         28.9395   15.5913   61.1100 O.3         1 DAN      -0.3861
     18 O8         25.3633   14.9450   60.4673 O.3         1 DAN      -0.3869
     19 O9         26.6691   13.4420   62.6939 O.3         1 DAN      -0.3924
     20 O10        25.4556   16.9105   63.9194 O.2         1 DAN      -0.3974
     21 H1         26.9563   20.8052   59.4985 H           1 DAN       0.0480
     22 H2         26.1589   20.4104   61.6631 H           1 DAN       0.0740
     23 H3         27.2974   18.0840   62.6598 H           1 DAN       0.0632
     24 H4         26.3389   17.1465   59.9284 H           1 DAN       0.0697
     25 H5         27.2993   15.8088   62.2674 H           1 DAN       0.0650
     26 H6         27.1263   14.5283   59.5169 H           1 DAN       0.0643
     27 H7         27.9545   12.9353   61.1750 H           1 DAN       0.0584
     28 H8         26.2505   12.5640   60.8893 H           1 DAN       0.0584
     29 H9         23.0240   16.7217   63.9981 H           1 DAN       0.0467
     30 H10        22.9333   16.8512   62.2325 H           1 DAN       0.0467
     31 H11        22.8963   18.3164   63.2414 H           1 DAN       0.0467
     32 H12        24.7020   18.4023   61.3376 H           1 DAN       0.1858
     33 H13        28.5050   20.9982   61.5051 H           1 DAN       0.2127
     34 H14        29.0939   15.3241   60.1783 H           1 DAN       0.2100
     35 H15        24.9777   14.2094   59.9408 H           1 DAN       0.2100
     36 H16        25.7077   13.6238   62.7564 H           1 DAN       0.2095
@<TRIPOS>BOND
     1     1    14  ar
     2     1    13  ar
     3     1     2   1
     4     2    16   1
     5     2     3   2
     6     3     4   1
     7     4    15   1
     8     4     5   1
     9     5    12   1
    10     5     6   1
    11     6    16   1
    12     6     7   1
    13     7    17   1
    14     7     8   1
    15     8    18   1
    16     8     9   1
    17     9    19   1
    18    12    10  am
    19    10    20   2
    20    10    11   1
    21     3    21   1
    22     4    22   1
    23     5    23   1
    24     6    24   1
    25     7    25   1
    26     8    26   1
    27     9    27   1
    28     9    28   1
    29    11    29   1
    30    11    30   1
    31    11    31   1
    32    12    32   1
    33    15    33   1
    34    17    34   1
    35    18    35   1
    36    19    36   1
@<TRIPOS>SUBSTRUCTURE
     1  DAN      1

