@<TRIPOS>MOLECULE
1f8b_ligand_014
    36    36
SMALL
GAST_HUCK
****
This file was generated by PARSER (from files_GN.cpp)

@<TRIPOS>ATOM
      1 C1         24.1522   20.0441   64.8383 C.2         1 DAN       0.0809
      2 C2         25.2601   19.2481   64.6143 C.2         1 DAN       0.1088
      3 C3         25.6350   18.2884   65.4835 C.2         1 DAN      -0.0276
      4 C4         26.8384   17.4932   65.2830 C.3         1 DAN       0.1003
      5 C5         27.8094   18.0807   64.2122 C.3         1 DAN       0.1064
      6 C6         26.9304   18.5576   63.0145 C.3         1 DAN       0.1321
      7 C7         27.7458   19.1075   61.8062 C.3         1 DAN       0.1154
      8 C8         26.9409   19.1833   60.4752 C.3         1 DAN       0.1068
      9 C9         27.8114   19.6101   59.2489 C.3         1 DAN       0.0727
     10 C10        28.8323   15.9694   63.4053 C.2         1 DAN       0.1734
     11 C11        30.0678   15.2538   63.2340 C.3         1 DAN       0.0257
     12 N5         28.8879   17.1936   63.8960 N.am        1 DAN      -0.2770
     13 O1A        24.1014   21.2851   64.2962 O.co2       1 DAN      -0.5623
     14 O1B        23.0424   19.6102   65.4857 O.co2       1 DAN      -0.5623
     15 O4         27.5269   17.3188   66.5198 O.3         1 DAN      -0.3807
     16 O6         26.0124   19.5630   63.5207 O.3         1 DAN      -0.3189
     17 O7         28.2725   20.3959   62.1381 O.3         1 DAN      -0.3861
     18 O8         26.3212   17.9156   60.2088 O.3         1 DAN      -0.3869
     19 O9         27.5654   18.8294   58.0732 O.3         1 DAN      -0.3924
     20 O10        27.7774   15.4200   63.1062 O.2         1 DAN      -0.3974
     21 H1         25.0586   18.0841   66.2754 H           1 DAN       0.0480
     22 H2         26.5040   16.5070   64.9608 H           1 DAN       0.0740
     23 H3         28.2721   18.9754   64.6431 H           1 DAN       0.0632
     24 H4         26.3472   17.7017   62.6660 H           1 DAN       0.0697
     25 H5         28.5925   18.4477   61.6294 H           1 DAN       0.0650
     26 H6         26.1385   19.9132   60.6100 H           1 DAN       0.0643
     27 H7         28.8762   19.5134   59.4714 H           1 DAN       0.0584
     28 H8         27.6127   20.6513   59.0030 H           1 DAN       0.0584
     29 H9         29.8967   14.2404   62.8722 H           1 DAN       0.0467
     30 H10        30.5855   15.1915   64.1929 H           1 DAN       0.0467
     31 H11        30.6973   15.7787   62.5142 H           1 DAN       0.0467
     32 H12        29.7783   17.5376   64.0802 H           1 DAN       0.1858
     33 H13        27.0523   16.5736   66.9419 H           1 DAN       0.2127
     34 H14        27.4873   20.9887   62.1862 H           1 DAN       0.2100
     35 H15        25.4784   18.1416   59.7565 H           1 DAN       0.2100
     36 H16        27.8895   17.9217   58.3035 H           1 DAN       0.2095
@<TRIPOS>BOND
     1     1    14  ar
     2     1    13  ar
     3     1     2   1
     4     2    16   1
     5     2     3   2
     6     3     4   1
     7     4    15   1
     8     4     5   1
     9     5    12   1
    10     5     6   1
    11     6    16   1
    12     6     7   1
    13     7    17   1
    14     7     8   1
    15     8    18   1
    16     8     9   1
    17     9    19   1
    18    12    10  am
    19    10    20   2
    20    10    11   1
    21     3    21   1
    22     4    22   1
    23     5    23   1
    24     6    24   1
    25     7    25   1
    26     8    26   1
    27     9    27   1
    28     9    28   1
    29    11    29   1
    30    11    30   1
    31    11    31   1
    32    12    32   1
    33    15    33   1
    34    17    34   1
    35    18    35   1
    36    19    36   1
@<TRIPOS>SUBSTRUCTURE
     1  DAN      1

