@<TRIPOS>MOLECULE
1f8b_ligand_079
    36    36
SMALL
GAST_HUCK
****
This file was generated by PARSER (from files_GN.cpp)

@<TRIPOS>ATOM
      1 C1         23.3833   19.9206   66.1236 C.2         1 DAN       0.0809
      2 C2         23.2158   19.1298   67.2383 C.2         1 DAN       0.1088
      3 C3         22.9453   17.8024   67.1493 C.2         1 DAN      -0.0276
      4 C4         22.7024   16.9679   68.3047 C.3         1 DAN       0.1003
      5 C5         22.8765   17.6938   69.6851 C.3         1 DAN       0.1064
      6 C6         22.5991   19.2238   69.5586 C.3         1 DAN       0.1321
      7 C7         21.0869   19.6352   69.5322 C.3         1 DAN       0.1154
      8 C8         20.8546   21.1758   69.5648 C.3         1 DAN       0.1068
      9 C9         19.3560   21.5899   69.6337 C.3         1 DAN       0.0727
     10 C10        24.7338   16.5595   70.8821 C.2         1 DAN       0.1734
     11 C11        26.1382   16.5995   71.2232 C.3         1 DAN       0.0257
     12 N5         24.2431   17.5227   70.1130 N.am        1 DAN      -0.2770
     13 O1A        24.4114   20.8067   66.0557 O.co2       1 DAN      -0.5623
     14 O1B        22.4497   19.9716   65.1402 O.co2       1 DAN      -0.5623
     15 O4         21.3861   16.4329   68.1707 O.3         1 DAN      -0.3807
     16 O6         23.3541   19.7455   68.4392 O.3         1 DAN      -0.3189
     17 O7         20.4071   19.0951   68.3984 O.3         1 DAN      -0.3861
     18 O8         21.5150   21.7625   70.6949 O.3         1 DAN      -0.3869
     19 O9         18.8195   21.8175   68.3295 O.3         1 DAN      -0.3924
     20 O10        24.0383   15.6441   71.3057 O.2         1 DAN      -0.3974
     21 H1         22.8807   17.3849   66.2438 H           1 DAN       0.0480
     22 H2         23.3858   16.1119   68.2531 H           1 DAN       0.0740
     23 H3         22.1949   17.2537   70.4135 H           1 DAN       0.0632
     24 H4         23.0175   19.6966   70.4536 H           1 DAN       0.0697
     25 H5         20.6129   19.2024   70.4139 H           1 DAN       0.0650
     26 H6         21.2986   21.6289   68.6760 H           1 DAN       0.0643
     27 H7         19.2493   22.5270   70.1942 H           1 DAN       0.0584
     28 H8         18.7758   20.8193   70.1352 H           1 DAN       0.0584
     29 H9         26.4291   15.7309   71.8198 H           1 DAN       0.0467
     30 H10        26.3441   17.5024   71.8010 H           1 DAN       0.0467
     31 H11        26.7401   16.6121   70.3127 H           1 DAN       0.0467
     32 H12        24.8825   18.1870   69.7969 H           1 DAN       0.1858
     33 H13        21.3646   15.6564   68.7831 H           1 DAN       0.2127
     34 H14        20.6246   19.6896   67.6496 H           1 DAN       0.2100
     35 H15        21.6216   21.0221   71.3360 H           1 DAN       0.2100
     36 H16        17.8513   21.9849   68.4831 H           1 DAN       0.2095
@<TRIPOS>BOND
     1     1    14  ar
     2     1    13  ar
     3     1     2   1
     4     2    16   1
     5     2     3   2
     6     3     4   1
     7     4    15   1
     8     4     5   1
     9     5    12   1
    10     5     6   1
    11     6    16   1
    12     6     7   1
    13     7    17   1
    14     7     8   1
    15     8    18   1
    16     8     9   1
    17     9    19   1
    18    12    10  am
    19    10    20   2
    20    10    11   1
    21     3    21   1
    22     4    22   1
    23     5    23   1
    24     6    24   1
    25     7    25   1
    26     8    26   1
    27     9    27   1
    28     9    28   1
    29    11    29   1
    30    11    30   1
    31    11    31   1
    32    12    32   1
    33    15    33   1
    34    17    34   1
    35    18    35   1
    36    19    36   1
@<TRIPOS>SUBSTRUCTURE
     1  DAN      1

