@<TRIPOS>MOLECULE
1f8b_ligand_080
    36    36
SMALL
GAST_HUCK
****
This file was generated by PARSER (from files_GN.cpp)

@<TRIPOS>ATOM
      1 C1         19.6854   14.9445   67.9610 C.2         1 DAN       0.0809
      2 C2         20.2253   16.0452   68.5957 C.2         1 DAN       0.1088
      3 C3         20.0021   16.3339   69.8924 C.2         1 DAN      -0.0276
      4 C4         20.5450   17.5637   70.4385 C.3         1 DAN       0.1003
      5 C5         22.0093   17.8387   69.9482 C.3         1 DAN       0.1064
      6 C6         22.2798   17.2011   68.5271 C.3         1 DAN       0.1321
      7 C7         23.2188   17.9966   67.5525 C.3         1 DAN       0.1154
      8 C8         23.2243   19.5522   67.6529 C.3         1 DAN       0.1068
      9 C9         24.1527   20.2608   66.6309 C.3         1 DAN       0.0727
     10 C10        23.8720   18.0380   71.5743 C.2         1 DAN       0.1734
     11 C11        24.8425   17.3338   72.3829 C.3         1 DAN       0.0257
     12 N5         22.9920   17.3340   70.8727 N.am        1 DAN      -0.2770
     13 O1A        20.1552   14.5633   66.7562 O.co2       1 DAN      -0.5623
     14 O1B        18.6696   14.2187   68.4737 O.co2       1 DAN      -0.5623
     15 O4         19.6738   18.6108   70.0029 O.3         1 DAN      -0.3807
     16 O6         21.0230   16.8718   67.8748 O.3         1 DAN      -0.3189
     17 O7         24.5643   17.5500   67.7382 O.3         1 DAN      -0.3861
     18 O8         21.8968   20.0605   67.5182 O.3         1 DAN      -0.3869
     19 O9         23.5113   20.5062   65.3875 O.3         1 DAN      -0.3924
     20 O10        23.8987   19.2639   71.5467 O.2         1 DAN      -0.3974
     21 H1         19.4728   15.7319   70.4776 H           1 DAN       0.0480
     22 H2         20.4978   17.5599   71.5299 H           1 DAN       0.0740
     23 H3         22.0828   18.9232   69.9001 H           1 DAN       0.0632
     24 H4         22.7712   16.2288   68.6746 H           1 DAN       0.0697
     25 H5         22.9382   17.7249   66.5310 H           1 DAN       0.0650
     26 H6         23.5922   19.8301   68.6448 H           1 DAN       0.0643
     27 H7         25.0572   19.6750   66.4580 H           1 DAN       0.0584
     28 H8         24.4534   21.2285   67.0371 H           1 DAN       0.0584
     29 H9         25.4952   18.0281   72.9202 H           1 DAN       0.0467
     30 H10        25.4649   16.7022   71.7480 H           1 DAN       0.0467
     31 H11        24.3344   16.7040   73.1157 H           1 DAN       0.0467
     32 H12        23.0472   16.3677   70.9545 H           1 DAN       0.1858
     33 H13        18.8357   18.4730   70.4956 H           1 DAN       0.2127
     34 H14        24.5986   16.6698   67.3064 H           1 DAN       0.2100
     35 H15        21.7650   20.6344   68.3027 H           1 DAN       0.2100
     36 H16        23.6917   19.7151   64.8347 H           1 DAN       0.2095
@<TRIPOS>BOND
     1     1    14  ar
     2     1    13  ar
     3     1     2   1
     4     2    16   1
     5     2     3   2
     6     3     4   1
     7     4    15   1
     8     4     5   1
     9     5    12   1
    10     5     6   1
    11     6    16   1
    12     6     7   1
    13     7    17   1
    14     7     8   1
    15     8    18   1
    16     8     9   1
    17     9    19   1
    18    12    10  am
    19    10    20   2
    20    10    11   1
    21     3    21   1
    22     4    22   1
    23     5    23   1
    24     6    24   1
    25     7    25   1
    26     8    26   1
    27     9    27   1
    28     9    28   1
    29    11    29   1
    30    11    30   1
    31    11    31   1
    32    12    32   1
    33    15    33   1
    34    17    34   1
    35    18    35   1
    36    19    36   1
@<TRIPOS>SUBSTRUCTURE
     1  DAN      1

