@<TRIPOS>MOLECULE
1f8b_ligand_057
    36    36
SMALL
GAST_HUCK
****
This file was generated by PARSER (from files_GN.cpp)

@<TRIPOS>ATOM
      1 C1         25.5963   20.1778   63.9141 C.2         1 DAN       0.0809
      2 C2         25.0670   18.9473   63.5691 C.2         1 DAN       0.1088
      3 C3         23.9075   18.4928   64.0909 C.2         1 DAN      -0.0276
      4 C4         23.3110   17.2358   63.6763 C.3         1 DAN       0.1003
      5 C5         24.2819   16.3040   62.8838 C.3         1 DAN       0.1064
      6 C6         25.1543   17.1723   61.9288 C.3         1 DAN       0.1321
      7 C7         26.2585   16.3740   61.1552 C.3         1 DAN       0.1154
      8 C8         26.9251   17.1271   59.9613 C.3         1 DAN       0.1068
      9 C9         26.2904   16.7855   58.5810 C.3         1 DAN       0.0727
     10 C10        23.6842   14.0088   62.1792 C.2         1 DAN       0.1734
     11 C11        22.7790   13.1889   61.4137 C.3         1 DAN       0.0257
     12 N5         23.5194   15.3248   62.1596 N.am        1 DAN      -0.2770
     13 O1A        24.9033   21.1018   64.6267 O.co2       1 DAN      -0.5623
     14 O1B        26.8407   20.5305   63.5072 O.co2       1 DAN      -0.5623
     15 O4         22.8419   16.5668   64.8427 O.3         1 DAN      -0.3807
     16 O6         25.8081   18.2055   62.7089 O.3         1 DAN      -0.3189
     17 O7         27.2879   15.9797   62.0703 O.3         1 DAN      -0.3861
     18 O8         26.9193   18.5483   60.1620 O.3         1 DAN      -0.3869
     19 O9         27.0464   17.3616   57.5183 O.3         1 DAN      -0.3924
     20 O10        24.5961   13.4784   62.7949 O.2         1 DAN      -0.3974
     21 H1         23.3679   19.0748   64.6953 H           1 DAN       0.0480
     22 H2         22.4465   17.4929   63.0492 H           1 DAN       0.0740
     23 H3         24.9550   15.8322   63.6102 H           1 DAN       0.0632
     24 H4         24.4962   17.6564   61.1944 H           1 DAN       0.0697
     25 H5         25.8266   15.4470   60.7640 H           1 DAN       0.0650
     26 H6         27.9796   16.8223   59.9055 H           1 DAN       0.0643
     27 H7         25.2597   17.1597   58.5240 H           1 DAN       0.0584
     28 H8         26.2824   15.6979   58.4461 H           1 DAN       0.0584
     29 H9         23.0177   12.1275   61.5131 H           1 DAN       0.0467
     30 H10        22.8307   13.4588   60.3589 H           1 DAN       0.0467
     31 H11        21.7614   13.3414   61.7656 H           1 DAN       0.0467
     32 H12        22.8103   15.6643   61.5924 H           1 DAN       0.1858
     33 H13        22.0016   16.1541   64.5608 H           1 DAN       0.2127
     34 H14        26.8571   15.3658   62.7002 H           1 DAN       0.2100
     35 H15        26.0448   18.8489   59.8188 H           1 DAN       0.2100
     36 H16        26.5135   17.1951   56.7026 H           1 DAN       0.2095
@<TRIPOS>BOND
     1     1    14  ar
     2     1    13  ar
     3     1     2   1
     4     2    16   1
     5     2     3   2
     6     3     4   1
     7     4    15   1
     8     4     5   1
     9     5    12   1
    10     5     6   1
    11     6    16   1
    12     6     7   1
    13     7    17   1
    14     7     8   1
    15     8    18   1
    16     8     9   1
    17     9    19   1
    18    12    10  am
    19    10    20   2
    20    10    11   1
    21     3    21   1
    22     4    22   1
    23     5    23   1
    24     6    24   1
    25     7    25   1
    26     8    26   1
    27     9    27   1
    28     9    28   1
    29    11    29   1
    30    11    30   1
    31    11    31   1
    32    12    32   1
    33    15    33   1
    34    17    34   1
    35    18    35   1
    36    19    36   1
@<TRIPOS>SUBSTRUCTURE
     1  DAN      1

