@<TRIPOS>MOLECULE
1f8b_ligand_065
    36    36
SMALL
GAST_HUCK
****
This file was generated by PARSER (from files_GN.cpp)

@<TRIPOS>ATOM
      1 C1         28.1633   17.1775   63.1354 C.2         1 DAN       0.0809
      2 C2         27.5550   16.4111   62.1465 C.2         1 DAN       0.1088
      3 C3         28.0344   15.2023   61.7857 C.2         1 DAN      -0.0276
      4 C4         27.4239   14.3798   60.7606 C.3         1 DAN       0.1003
      5 C5         26.0389   14.8932   60.2416 C.3         1 DAN       0.1064
      6 C6         25.9439   16.4631   60.3154 C.3         1 DAN       0.1321
      7 C7         26.4866   17.3199   59.1000 C.3         1 DAN       0.1154
      8 C8         27.7682   18.1933   59.2739 C.3         1 DAN       0.1068
      9 C9         28.0604   19.2143   58.1239 C.3         1 DAN       0.0727
     10 C10        24.2513   14.5137   61.9533 C.2         1 DAN       0.1734
     11 C11        23.1092   13.7047   62.2894 C.3         1 DAN       0.0257
     12 N5         24.9361   14.2092   60.8601 N.am        1 DAN      -0.2770
     13 O1A        27.6515   18.3781   63.4920 O.co2       1 DAN      -0.5623
     14 O1B        29.3327   16.8229   63.7209 O.co2       1 DAN      -0.5623
     15 O4         28.3559   14.3052   59.6815 O.3         1 DAN      -0.3807
     16 O6         26.4214   16.9194   61.6072 O.3         1 DAN      -0.3189
     17 O7         26.7012   16.4955   57.9524 O.3         1 DAN      -0.3861
     18 O8         27.6910   18.9794   60.4595 O.3         1 DAN      -0.3869
     19 O9         27.5148   18.9044   56.8467 O.3         1 DAN      -0.3924
     20 O10        24.5259   15.4838   62.6513 O.2         1 DAN      -0.3974
     21 H1         28.8715   14.8524   62.2017 H           1 DAN       0.0480
     22 H2         27.3120   13.3641   61.1563 H           1 DAN       0.0740
     23 H3         25.9503   14.5746   59.1981 H           1 DAN       0.0632
     24 H4         24.8758   16.6849   60.3462 H           1 DAN       0.0697
     25 H5         25.6947   18.0208   58.8129 H           1 DAN       0.0650
     26 H6         28.6199   17.5192   59.3766 H           1 DAN       0.0643
     27 H7         29.1375   19.3123   58.0038 H           1 DAN       0.0584
     28 H8         27.6739   20.2041   58.3894 H           1 DAN       0.0584
     29 H9         22.5707   14.1093   63.1510 H           1 DAN       0.0467
     30 H10        23.4312   12.6880   62.5253 H           1 DAN       0.0467
     31 H11        22.4183   13.6626   61.4433 H           1 DAN       0.0467
     32 H12        24.6370   13.4063   60.3978 H           1 DAN       0.1858
     33 H13        28.0424   13.5621   59.1168 H           1 DAN       0.2127
     34 H14        25.8063   16.2630   57.6343 H           1 DAN       0.2100
     35 H15        26.8492   19.4758   60.3686 H           1 DAN       0.2100
     36 H16        27.5492   17.9290   56.7801 H           1 DAN       0.2095
@<TRIPOS>BOND
     1     1    14  ar
     2     1    13  ar
     3     1     2   1
     4     2    16   1
     5     2     3   2
     6     3     4   1
     7     4    15   1
     8     4     5   1
     9     5    12   1
    10     5     6   1
    11     6    16   1
    12     6     7   1
    13     7    17   1
    14     7     8   1
    15     8    18   1
    16     8     9   1
    17     9    19   1
    18    12    10  am
    19    10    20   2
    20    10    11   1
    21     3    21   1
    22     4    22   1
    23     5    23   1
    24     6    24   1
    25     7    25   1
    26     8    26   1
    27     9    27   1
    28     9    28   1
    29    11    29   1
    30    11    30   1
    31    11    31   1
    32    12    32   1
    33    15    33   1
    34    17    34   1
    35    18    35   1
    36    19    36   1
@<TRIPOS>SUBSTRUCTURE
     1  DAN      1

