@<TRIPOS>MOLECULE
1f8b_ligand_072
    36    36
SMALL
GAST_HUCK
****
This file was generated by PARSER (from files_GN.cpp)

@<TRIPOS>ATOM
      1 C1         24.4945   22.9657   69.9987 C.2         1 DAN       0.0809
      2 C2         24.9007   22.1068   68.9971 C.2         1 DAN       0.1088
      3 C3         24.0973   21.1202   68.5369 C.2         1 DAN      -0.0276
      4 C4         24.4511   20.3306   67.3814 C.3         1 DAN       0.1003
      5 C5         25.9463   20.4607   66.9307 C.3         1 DAN       0.1064
      6 C6         26.4503   21.9288   67.1463 C.3         1 DAN       0.1321
      7 C7         27.9656   22.2647   66.8478 C.3         1 DAN       0.1154
      8 C8         29.0071   21.1021   66.7265 C.3         1 DAN       0.1068
      9 C9         30.3255   21.4901   66.0075 C.3         1 DAN       0.0727
     10 C10        25.5969   20.2799   64.4654 C.2         1 DAN       0.1734
     11 C11        26.0551   19.6425   63.2515 C.3         1 DAN       0.0257
     12 N5         26.1539   19.9201   65.6171 N.am        1 DAN      -0.2770
     13 O1A        24.7528   24.2907   69.9040 O.co2       1 DAN      -0.5623
     14 O1B        23.8368   22.5295   71.1076 O.co2       1 DAN      -0.5623
     15 O4         24.1372   18.9588   67.6191 O.3         1 DAN      -0.3807
     16 O6         26.1556   22.2898   68.5185 O.3         1 DAN      -0.3189
     17 O7         28.0296   23.0929   65.6804 O.3         1 DAN      -0.3861
     18 O8         29.2965   20.5776   68.0200 O.3         1 DAN      -0.3869
     19 O9         30.7647   22.7916   66.3672 O.3         1 DAN      -0.3924
     20 O10        24.7330   21.1481   64.4013 O.2         1 DAN      -0.3974
     21 H1         23.1816   21.0223   68.8946 H           1 DAN       0.0480
     22 H2         23.7949   20.6720   66.5703 H           1 DAN       0.0740
     23 H3         26.5282   19.8374   67.6098 H           1 DAN       0.0632
     24 H4         25.8282   22.5813   66.5217 H           1 DAN       0.0697
     25 H5         28.3318   22.8956   67.6604 H           1 DAN       0.0650
     26 H6         28.5939   20.2798   66.1433 H           1 DAN       0.0643
     27 H7         30.1638   21.4630   64.9251 H           1 DAN       0.0584
     28 H8         31.1137   20.7716   66.2435 H           1 DAN       0.0584
     29 H9         25.5412   20.0315   62.3742 H           1 DAN       0.0467
     30 H10        25.8754   18.5720   63.3070 H           1 DAN       0.0467
     31 H11        27.1284   19.8157   63.1230 H           1 DAN       0.0467
     32 H12        26.8199   19.2190   65.5594 H           1 DAN       0.1858
     33 H13        24.6983   18.6937   68.3771 H           1 DAN       0.2127
     34 H14        27.7597   23.9875   65.9907 H           1 DAN       0.2100
     35 H15        29.7751   21.2984   68.4867 H           1 DAN       0.2100
     36 H16        30.8056   23.2676   65.5013 H           1 DAN       0.2095
@<TRIPOS>BOND
     1     1    14  ar
     2     1    13  ar
     3     1     2   1
     4     2    16   1
     5     2     3   2
     6     3     4   1
     7     4    15   1
     8     4     5   1
     9     5    12   1
    10     5     6   1
    11     6    16   1
    12     6     7   1
    13     7    17   1
    14     7     8   1
    15     8    18   1
    16     8     9   1
    17     9    19   1
    18    12    10  am
    19    10    20   2
    20    10    11   1
    21     3    21   1
    22     4    22   1
    23     5    23   1
    24     6    24   1
    25     7    25   1
    26     8    26   1
    27     9    27   1
    28     9    28   1
    29    11    29   1
    30    11    30   1
    31    11    31   1
    32    12    32   1
    33    15    33   1
    34    17    34   1
    35    18    35   1
    36    19    36   1
@<TRIPOS>SUBSTRUCTURE
     1  DAN      1

