@<TRIPOS>MOLECULE
1f8b_ligand_073
    36    36
SMALL
GAST_HUCK
****
This file was generated by PARSER (from files_GN.cpp)

@<TRIPOS>ATOM
      1 C1         28.0171   15.8453   63.3176 C.2         1 DAN       0.0809
      2 C2         27.8173   17.0111   62.6330 C.2         1 DAN       0.1088
      3 C3         28.8567   17.7640   62.2142 C.2         1 DAN      -0.0276
      4 C4         28.6853   18.9663   61.4075 C.3         1 DAN       0.1003
      5 C5         27.2040   19.2064   60.9226 C.3         1 DAN       0.1064
      6 C6         26.2113   18.6871   62.0263 C.3         1 DAN       0.1321
      7 C7         26.0510   19.5915   63.2936 C.3         1 DAN       0.1154
      8 C8         24.7781   19.3124   64.1612 C.3         1 DAN       0.1068
      9 C9         24.9554   18.2490   65.2770 C.3         1 DAN       0.0727
     10 C10        27.5764   18.5321   58.5654 C.2         1 DAN       0.1734
     11 C11        27.0718   17.7675   57.4486 C.3         1 DAN       0.0257
     12 N5         26.9076   18.5116   59.7073 N.am        1 DAN      -0.2770
     13 O1A        27.6211   14.6450   62.7887 O.co2       1 DAN      -0.5623
     14 O1B        28.4818   15.8596   64.6059 O.co2       1 DAN      -0.5623
     15 O4         29.1488   20.1053   62.1399 O.3         1 DAN      -0.3807
     16 O6         26.5314   17.3084   62.3234 O.3         1 DAN      -0.3189
     17 O7         27.2166   19.6050   64.1398 O.3         1 DAN      -0.3861
     18 O8         24.2952   20.5212   64.7300 O.3         1 DAN      -0.3869
     19 O9         25.6291   18.7701   66.4159 O.3         1 DAN      -0.3924
     20 O10        28.6546   19.1235   58.4949 O.2         1 DAN      -0.3974
     21 H1         29.7900   17.4920   62.4444 H           1 DAN       0.0480
     22 H2         29.3241   18.8797   60.4961 H           1 DAN       0.0740
     23 H3         27.0338   20.2649   60.7572 H           1 DAN       0.0632
     24 H4         25.2157   18.6665   61.5691 H           1 DAN       0.0697
     25 H5         25.9586   20.6221   62.9280 H           1 DAN       0.0650
     26 H6         23.9850   18.9500   63.4954 H           1 DAN       0.0643
     27 H7         25.5274   17.3906   64.9078 H           1 DAN       0.0584
     28 H8         23.9761   17.8769   65.5969 H           1 DAN       0.0584
     29 H9         27.7665   17.7684   56.6027 H           1 DAN       0.0467
     30 H10        26.1167   18.1966   57.1126 H           1 DAN       0.0467
     31 H11        26.8996   16.7253   57.7535 H           1 DAN       0.0467
     32 H12        26.0627   17.9993   59.6845 H           1 DAN       0.1858
     33 H13        29.2674   20.8063   61.4703 H           1 DAN       0.2127
     34 H14        27.3336   18.6851   64.4318 H           1 DAN       0.2100
     35 H15        24.9396   20.7549   65.4399 H           1 DAN       0.2100
     36 H16        24.9191   19.1095   67.0026 H           1 DAN       0.2095
@<TRIPOS>BOND
     1     1    14  ar
     2     1    13  ar
     3     1     2   1
     4     2    16   1
     5     2     3   2
     6     3     4   1
     7     4    15   1
     8     4     5   1
     9     5    12   1
    10     5     6   1
    11     6    16   1
    12     6     7   1
    13     7    17   1
    14     7     8   1
    15     8    18   1
    16     8     9   1
    17     9    19   1
    18    12    10  am
    19    10    20   2
    20    10    11   1
    21     3    21   1
    22     4    22   1
    23     5    23   1
    24     6    24   1
    25     7    25   1
    26     8    26   1
    27     9    27   1
    28     9    28   1
    29    11    29   1
    30    11    30   1
    31    11    31   1
    32    12    32   1
    33    15    33   1
    34    17    34   1
    35    18    35   1
    36    19    36   1
@<TRIPOS>SUBSTRUCTURE
     1  DAN      1

