@<TRIPOS>MOLECULE
1f8b_ligand_036
    36    36
SMALL
GAST_HUCK
****
This file was generated by PARSER (from files_GN.cpp)

@<TRIPOS>ATOM
      1 C1         27.7125   19.3910   59.7254 C.2         1 DAN       0.0809
      2 C2         27.0898   18.2359   60.1747 C.2         1 DAN       0.1088
      3 C3         27.3691   17.0203   59.6570 C.2         1 DAN      -0.0276
      4 C4         26.7220   15.8066   60.1380 C.3         1 DAN       0.1003
      5 C5         25.4252   16.0953   60.9568 C.3         1 DAN       0.1064
      6 C6         25.7587   17.2655   61.9316 C.3         1 DAN       0.1321
      7 C7         24.6177   17.6600   62.9174 C.3         1 DAN       0.1154
      8 C8         25.0058   18.8257   63.8786 C.3         1 DAN       0.1068
      9 C9         23.9889   19.0498   65.0429 C.3         1 DAN       0.0727
     10 C10        23.8827   14.2076   61.3825 C.2         1 DAN       0.1734
     11 C11        23.5959   13.0400   62.1819 C.3         1 DAN       0.0257
     12 N5         24.9811   14.9122   61.6429 N.am        1 DAN      -0.2770
     13 O1A        28.9679   19.3818   59.2099 O.co2       1 DAN      -0.5623
     14 O1B        27.1278   20.6031   59.9001 O.co2       1 DAN      -0.5623
     15 O4         26.4443   14.9292   59.0536 O.3         1 DAN      -0.3807
     16 O6         26.1404   18.4043   61.1287 O.3         1 DAN      -0.3189
     17 O7         23.4345   17.9911   62.1971 O.3         1 DAN      -0.3861
     18 O8         26.3098   18.5981   64.4404 O.3         1 DAN      -0.3869
     19 O9         23.1562   20.1852   64.8315 O.3         1 DAN      -0.3924
     20 O10        23.1138   14.5100   60.4772 O.2         1 DAN      -0.3974
     21 H1         28.0786   16.9245   58.9629 H           1 DAN       0.0480
     22 H2         27.4467   15.2906   60.7823 H           1 DAN       0.0740
     23 H3         24.6600   16.4527   60.2580 H           1 DAN       0.0632
     24 H4         26.6192   16.9615   62.5382 H           1 DAN       0.0697
     25 H5         24.3840   16.7847   63.5272 H           1 DAN       0.0650
     26 H6         25.0908   19.7488   63.2963 H           1 DAN       0.0643
     27 H7         24.5159   19.2169   65.9894 H           1 DAN       0.0584
     28 H8         23.3506   18.1746   65.1818 H           1 DAN       0.0584
     29 H9         22.7186   12.5076   61.8104 H           1 DAN       0.0467
     30 H10        23.4087   13.3398   63.2134 H           1 DAN       0.0467
     31 H11        24.4492   12.3563   62.1583 H           1 DAN       0.0467
     32 H12        25.5426   14.5887   62.3625 H           1 DAN       0.1858
     33 H13        25.7270   15.3525   58.5438 H           1 DAN       0.2127
     34 H14        23.7439   18.2759   61.3043 H           1 DAN       0.2100
     35 H15        26.2336   17.7646   64.9435 H           1 DAN       0.2100
     36 H16        22.9297   20.1556   63.8721 H           1 DAN       0.2095
@<TRIPOS>BOND
     1     1    14  ar
     2     1    13  ar
     3     1     2   1
     4     2    16   1
     5     2     3   2
     6     3     4   1
     7     4    15   1
     8     4     5   1
     9     5    12   1
    10     5     6   1
    11     6    16   1
    12     6     7   1
    13     7    17   1
    14     7     8   1
    15     8    18   1
    16     8     9   1
    17     9    19   1
    18    12    10  am
    19    10    20   2
    20    10    11   1
    21     3    21   1
    22     4    22   1
    23     5    23   1
    24     6    24   1
    25     7    25   1
    26     8    26   1
    27     9    27   1
    28     9    28   1
    29    11    29   1
    30    11    30   1
    31    11    31   1
    32    12    32   1
    33    15    33   1
    34    17    34   1
    35    18    35   1
    36    19    36   1
@<TRIPOS>SUBSTRUCTURE
     1  DAN      1

