@<TRIPOS>MOLECULE
1f8b_ligand_023
    36    36
SMALL
GAST_HUCK
****
This file was generated by PARSER (from files_GN.cpp)

@<TRIPOS>ATOM
      1 C1         24.5552   19.6152   64.4999 C.2         1 DAN       0.0809
      2 C2         25.7147   19.0285   64.0175 C.2         1 DAN       0.1088
      3 C3         26.0604   19.0678   62.7122 C.2         1 DAN      -0.0276
      4 C4         27.3029   18.4912   62.2157 C.3         1 DAN       0.1003
      5 C5         28.0648   17.6093   63.2575 C.3         1 DAN       0.1064
      6 C6         27.8836   18.2370   64.6741 C.3         1 DAN       0.1321
      7 C7         28.5604   17.4352   65.8305 C.3         1 DAN       0.1154
      8 C8         28.1368   17.8454   67.2767 C.3         1 DAN       0.1068
      9 C9         28.7822   19.1649   67.7748 C.3         1 DAN       0.0727
     10 C10        29.9889   16.7030   61.9901 C.2         1 DAN       0.1734
     11 C11        31.4047   16.8071   61.7189 C.3         1 DAN       0.0257
     12 N5         29.4511   17.5176   62.8880 N.am        1 DAN      -0.2770
     13 O1A        23.6255   18.8669   65.1339 O.co2       1 DAN      -0.5623
     14 O1B        24.2887   20.9361   64.3593 O.co2       1 DAN      -0.5623
     15 O4         27.0120   17.7143   61.0531 O.3         1 DAN      -0.3807
     16 O6         26.4618   18.3489   64.9195 O.3         1 DAN      -0.3189
     17 O7         28.3468   16.0312   65.6749 O.3         1 DAN      -0.3861
     18 O8         26.7166   17.9530   67.3992 O.3         1 DAN      -0.3869
     19 O9         28.5388   19.3598   69.1649 O.3         1 DAN      -0.3924
     20 O10        29.3181   15.8928   61.3608 O.2         1 DAN      -0.3974
     21 H1         25.4963   19.5630   62.0599 H           1 DAN       0.0480
     22 H2         27.9367   19.3281   61.9044 H           1 DAN       0.0740
     23 H3         27.5888   16.6216   63.2726 H           1 DAN       0.0632
     24 H4         28.3218   19.2417   64.6599 H           1 DAN       0.0697
     25 H5         29.6403   17.5848   65.7536 H           1 DAN       0.0650
     26 H6         28.4585   17.0477   67.9543 H           1 DAN       0.0643
     27 H7         28.3746   20.0203   67.2329 H           1 DAN       0.0584
     28 H8         29.8622   19.1360   67.6228 H           1 DAN       0.0584
     29 H9         31.7125   16.1258   60.9215 H           1 DAN       0.0467
     30 H10        31.9694   16.5632   62.6201 H           1 DAN       0.0467
     31 H11        31.6486   17.8259   61.4126 H           1 DAN       0.0467
     32 H12        30.0507   18.1518   63.3110 H           1 DAN       0.1858
     33 H13        27.8749   17.5811   60.6050 H           1 DAN       0.2127
     34 H14        27.3900   15.8729   65.8068 H           1 DAN       0.2100
     35 H15        26.3598   17.0546   67.2355 H           1 DAN       0.2100
     36 H16        27.5783   19.5444   69.2364 H           1 DAN       0.2095
@<TRIPOS>BOND
     1     1    14  ar
     2     1    13  ar
     3     1     2   1
     4     2    16   1
     5     2     3   2
     6     3     4   1
     7     4    15   1
     8     4     5   1
     9     5    12   1
    10     5     6   1
    11     6    16   1
    12     6     7   1
    13     7    17   1
    14     7     8   1
    15     8    18   1
    16     8     9   1
    17     9    19   1
    18    12    10  am
    19    10    20   2
    20    10    11   1
    21     3    21   1
    22     4    22   1
    23     5    23   1
    24     6    24   1
    25     7    25   1
    26     8    26   1
    27     9    27   1
    28     9    28   1
    29    11    29   1
    30    11    30   1
    31    11    31   1
    32    12    32   1
    33    15    33   1
    34    17    34   1
    35    18    35   1
    36    19    36   1
@<TRIPOS>SUBSTRUCTURE
     1  DAN      1

