@<TRIPOS>MOLECULE
1f8b_ligand_044
    36    36
SMALL
GAST_HUCK
****
This file was generated by PARSER (from files_GN.cpp)

@<TRIPOS>ATOM
      1 C1         23.8762   19.2209   65.5148 C.2         1 DAN       0.0809
      2 C2         24.9621   19.7694   66.1607 C.2         1 DAN       0.1088
      3 C3         24.8650   20.7833   67.0510 C.2         1 DAN      -0.0276
      4 C4         26.0699   21.2652   67.7106 C.3         1 DAN       0.1003
      5 C5         27.1907   21.4199   66.6508 C.3         1 DAN       0.1064
      6 C6         27.3299   20.0802   65.8324 C.3         1 DAN       0.1321
      7 C7         27.7529   20.3392   64.3406 C.3         1 DAN       0.1154
      8 C8         28.8355   19.3757   63.7571 C.3         1 DAN       0.1068
      9 C9         29.4151   19.8994   62.4164 C.3         1 DAN       0.0727
     10 C10        29.2955   22.6816   66.8375 C.2         1 DAN       0.1734
     11 C11        30.5511   22.8046   67.5339 C.3         1 DAN       0.0257
     12 N5         28.4354   21.7716   67.2659 N.am        1 DAN      -0.2770
     13 O1A        22.7315   19.9200   65.3268 O.co2       1 DAN      -0.5623
     14 O1B        23.9221   17.9644   65.0236 O.co2       1 DAN      -0.5623
     15 O4         25.8608   22.4893   68.4200 O.3         1 DAN      -0.3807
     16 O6         26.1672   19.2062   65.9237 O.3         1 DAN      -0.3189
     17 O7         26.6065   20.3405   63.4848 O.3         1 DAN      -0.3861
     18 O8         29.9325   19.1848   64.6550 O.3         1 DAN      -0.3869
     19 O9         30.0522   21.1627   62.5837 O.3         1 DAN      -0.3924
     20 O10        29.0686   23.3914   65.8623 O.2         1 DAN      -0.3974
     21 H1         23.9882   21.2120   67.2440 H           1 DAN       0.0480
     22 H2         26.3660   20.5119   68.4469 H           1 DAN       0.0740
     23 H3         26.8529   22.2213   65.9803 H           1 DAN       0.0632
     24 H4         28.1089   19.4881   66.3215 H           1 DAN       0.0697
     25 H5         28.1584   21.3503   64.2635 H           1 DAN       0.0650
     26 H6         28.3799   18.3986   63.5796 H           1 DAN       0.0643
     27 H7         28.6187   20.0086   61.6775 H           1 DAN       0.0584
     28 H8         30.1572   19.1969   62.0297 H           1 DAN       0.0584
     29 H9         31.2377   23.4781   67.0194 H           1 DAN       0.0467
     30 H10        31.0374   21.8305   67.6105 H           1 DAN       0.0467
     31 H11        30.3704   23.1899   68.5373 H           1 DAN       0.0467
     32 H12        28.7059   21.2409   68.0344 H           1 DAN       0.1858
     33 H13        26.0379   23.2147   67.7823 H           1 DAN       0.2127
     34 H14        26.2416   19.4310   63.5254 H           1 DAN       0.2100
     35 H15        30.2947   20.0814   64.8128 H           1 DAN       0.2100
     36 H16        30.1687   21.4954   61.6714 H           1 DAN       0.2095
@<TRIPOS>BOND
     1     1    14  ar
     2     1    13  ar
     3     1     2   1
     4     2    16   1
     5     2     3   2
     6     3     4   1
     7     4    15   1
     8     4     5   1
     9     5    12   1
    10     5     6   1
    11     6    16   1
    12     6     7   1
    13     7    17   1
    14     7     8   1
    15     8    18   1
    16     8     9   1
    17     9    19   1
    18    12    10  am
    19    10    20   2
    20    10    11   1
    21     3    21   1
    22     4    22   1
    23     5    23   1
    24     6    24   1
    25     7    25   1
    26     8    26   1
    27     9    27   1
    28     9    28   1
    29    11    29   1
    30    11    30   1
    31    11    31   1
    32    12    32   1
    33    15    33   1
    34    17    34   1
    35    18    35   1
    36    19    36   1
@<TRIPOS>SUBSTRUCTURE
     1  DAN      1

