@<TRIPOS>MOLECULE
1f8b_ligand_012
    36    36
SMALL
GAST_HUCK
****
This file was generated by PARSER (from files_GN.cpp)

@<TRIPOS>ATOM
      1 C1         23.5282   20.3215   65.2917 C.2         1 DAN       0.0809
      2 C2         23.7382   19.9899   66.6095 C.2         1 DAN       0.1088
      3 C3         24.3794   20.7885   67.4867 C.2         1 DAN      -0.0276
      4 C4         24.4256   20.4169   68.8962 C.3         1 DAN       0.1003
      5 C5         23.1137   19.6920   69.3950 C.3         1 DAN       0.1064
      6 C6         22.3535   18.9698   68.2104 C.3         1 DAN       0.1321
      7 C7         21.7926   17.5511   68.5707 C.3         1 DAN       0.1154
      8 C8         20.4991   17.5665   69.4564 C.3         1 DAN       0.1068
      9 C9         19.2812   18.3405   68.8562 C.3         1 DAN       0.0727
     10 C10        21.8122   21.7633   69.8417 C.2         1 DAN       0.1734
     11 C11        20.9554   22.4597   70.7761 C.3         1 DAN       0.0257
     12 N5         22.2542   20.5540   70.1614 N.am        1 DAN      -0.2770
     13 O1A        22.3084   20.0830   64.7453 O.co2       1 DAN      -0.5623
     14 O1B        24.4027   21.0778   64.5815 O.co2       1 DAN      -0.5623
     15 O4         25.5658   19.5778   69.0698 O.3         1 DAN      -0.3807
     16 O6         23.2143   18.8283   67.0585 O.3         1 DAN      -0.3189
     17 O7         21.5079   16.8010   67.3927 O.3         1 DAN      -0.3861
     18 O8         20.0816   16.2177   69.7012 O.3         1 DAN      -0.3869
     19 O9         18.7303   19.2503   69.8086 O.3         1 DAN      -0.3924
     20 O10        22.1239   22.3137   68.7943 O.2         1 DAN      -0.3974
     21 H1         24.7143   21.6849   67.2083 H           1 DAN       0.0480
     22 H2         24.6143   21.3063   69.4958 H           1 DAN       0.0740
     23 H3         23.4393   18.9348   70.1115 H           1 DAN       0.0632
     24 H4         21.5179   19.5940   67.8916 H           1 DAN       0.0697
     25 H5         22.5710   16.9964   69.1074 H           1 DAN       0.0650
     26 H6         20.7661   17.9899   70.4288 H           1 DAN       0.0643
     27 H7         18.4917   17.6429   68.5515 H           1 DAN       0.0584
     28 H8         19.5503   18.9227   67.9738 H           1 DAN       0.0584
     29 H9         20.7144   23.4674   70.4254 H           1 DAN       0.0467
     30 H10        21.4521   22.5456   71.7461 H           1 DAN       0.0467
     31 H11        20.0225   21.9061   70.8981 H           1 DAN       0.0467
     32 H12        21.9611   20.2085   71.0240 H           1 DAN       0.1858
     33 H13        25.3375   18.7177   68.6570 H           1 DAN       0.2127
     34 H14        22.2406   16.1462   67.3152 H           1 DAN       0.2100
     35 H15        20.8982   15.6665   69.6816 H           1 DAN       0.2100
     36 H16        18.2774   18.6887   70.4672 H           1 DAN       0.2095
@<TRIPOS>BOND
     1     1    14  ar
     2     1    13  ar
     3     1     2   1
     4     2    16   1
     5     2     3   2
     6     3     4   1
     7     4    15   1
     8     4     5   1
     9     5    12   1
    10     5     6   1
    11     6    16   1
    12     6     7   1
    13     7    17   1
    14     7     8   1
    15     8    18   1
    16     8     9   1
    17     9    19   1
    18    12    10  am
    19    10    20   2
    20    10    11   1
    21     3    21   1
    22     4    22   1
    23     5    23   1
    24     6    24   1
    25     7    25   1
    26     8    26   1
    27     9    27   1
    28     9    28   1
    29    11    29   1
    30    11    30   1
    31    11    31   1
    32    12    32   1
    33    15    33   1
    34    17    34   1
    35    18    35   1
    36    19    36   1
@<TRIPOS>SUBSTRUCTURE
     1  DAN      1

