@<TRIPOS>MOLECULE
1f8b_ligand_006
    36    36
SMALL
GAST_HUCK
****
This file was generated by PARSER (from files_GN.cpp)

@<TRIPOS>ATOM
      1 C1         24.0906   19.9976   64.8361 C.2         1 DAN       0.0809
      2 C2         25.2807   19.3127   64.6538 C.2         1 DAN       0.1088
      3 C3         25.5783   18.1537   65.2737 C.2         1 DAN      -0.0276
      4 C4         26.8334   17.4442   65.0519 C.3         1 DAN       0.1003
      5 C5         27.8327   18.1080   64.0362 C.3         1 DAN       0.1064
      6 C6         27.1231   19.1620   63.1255 C.3         1 DAN       0.1321
      7 C7         28.0275   20.1654   62.3369 C.3         1 DAN       0.1154
      8 C8         28.9546   21.2116   63.0756 C.3         1 DAN       0.1068
      9 C9         29.0131   21.2480   64.6314 C.3         1 DAN       0.0727
     10 C10        28.1560   16.0462   62.6747 C.2         1 DAN       0.1734
     11 C11        29.1235   15.1444   62.1001 C.3         1 DAN       0.0257
     12 N5         28.6010   17.1224   63.3185 N.am        1 DAN      -0.2770
     13 O1A        23.0319   19.5078   65.5214 O.co2       1 DAN      -0.5623
     14 O1B        23.9181   21.1946   64.2349 O.co2       1 DAN      -0.5623
     15 O4         27.5027   17.2810   66.3068 O.3         1 DAN      -0.3807
     16 O6         26.2023   19.9462   63.9047 O.3         1 DAN      -0.3189
     17 O7         28.7688   19.4348   61.3504 O.3         1 DAN      -0.3861
     18 O8         30.3049   21.1017   62.6236 O.3         1 DAN      -0.3869
     19 O9         29.1388   22.5792   65.1275 O.3         1 DAN      -0.3924
     20 O10        26.9640   15.7874   62.5845 O.2         1 DAN      -0.3974
     21 H1         24.9093   17.7263   65.8789 H           1 DAN       0.0480
     22 H2         26.5641   16.4446   64.7006 H           1 DAN       0.0740
     23 H3         28.5595   18.6635   64.6218 H           1 DAN       0.0632
     24 H4         26.5236   18.6304   62.3803 H           1 DAN       0.0697
     25 H5         27.3170   20.7600   61.7500 H           1 DAN       0.0650
     26 H6         28.6206   22.2051   62.7604 H           1 DAN       0.0643
     27 H7         29.8654   20.6786   64.9985 H           1 DAN       0.0584
     28 H8         28.1045   20.8500   65.0746 H           1 DAN       0.0584
     29 H9         28.6376   14.2985   61.6050 H           1 DAN       0.0467
     30 H10        29.7674   14.7540   62.8899 H           1 DAN       0.0467
     31 H11        29.7279   15.6724   61.3650 H           1 DAN       0.0467
     32 H12        29.5674   17.2420   63.3385 H           1 DAN       0.1858
     33 H13        27.0475   16.5392   66.7493 H           1 DAN       0.2127
     34 H14        29.5430   19.0678   61.8273 H           1 DAN       0.2100
     35 H15        30.2580   21.3035   61.6636 H           1 DAN       0.2100
     36 H16        30.0356   22.8811   64.8710 H           1 DAN       0.2095
@<TRIPOS>BOND
     1     1    14  ar
     2     1    13  ar
     3     1     2   1
     4     2    16   1
     5     2     3   2
     6     3     4   1
     7     4    15   1
     8     4     5   1
     9     5    12   1
    10     5     6   1
    11     6    16   1
    12     6     7   1
    13     7    17   1
    14     7     8   1
    15     8    18   1
    16     8     9   1
    17     9    19   1
    18    12    10  am
    19    10    20   2
    20    10    11   1
    21     3    21   1
    22     4    22   1
    23     5    23   1
    24     6    24   1
    25     7    25   1
    26     8    26   1
    27     9    27   1
    28     9    28   1
    29    11    29   1
    30    11    30   1
    31    11    31   1
    32    12    32   1
    33    15    33   1
    34    17    34   1
    35    18    35   1
    36    19    36   1
@<TRIPOS>SUBSTRUCTURE
     1  DAN      1

