@<TRIPOS>MOLECULE
1f8b_ligand_070
    36    36
SMALL
GAST_HUCK
****
This file was generated by PARSER (from files_GN.cpp)

@<TRIPOS>ATOM
      1 C1         28.2532   18.9546   57.8733 C.2         1 DAN       0.0809
      2 C2         27.7968   18.8405   59.1638 C.2         1 DAN       0.1088
      3 C3         27.2722   19.9075   59.8055 C.2         1 DAN      -0.0276
      4 C4         26.8730   19.8576   61.2012 C.3         1 DAN       0.1003
      5 C5         26.8192   18.4094   61.7886 C.3         1 DAN       0.1064
      6 C6         27.9659   17.5372   61.1833 C.3         1 DAN       0.1321
      7 C7         29.4117   17.8209   61.7335 C.3         1 DAN       0.1154
      8 C8         30.2841   16.5206   61.8139 C.3         1 DAN       0.1068
      9 C9         31.8470   16.6421   61.7279 C.3         1 DAN       0.0727
     10 C10        24.9289   16.8200   62.0395 C.2         1 DAN       0.1734
     11 C11        23.6626   16.3796   61.5083 C.3         1 DAN       0.0257
     12 N5         25.5406   17.8409   61.4530 N.am        1 DAN      -0.2770
     13 O1A        29.5068   19.4147   57.6887 O.co2       1 DAN      -0.5623
     14 O1B        27.3636   19.2097   56.8801 O.co2       1 DAN      -0.5623
     15 O4         27.7442   20.6901   61.9628 O.3         1 DAN      -0.3807
     16 O6         27.9241   17.6169   59.7360 O.3         1 DAN      -0.3189
     17 O7         30.0422   18.8219   60.9313 O.3         1 DAN      -0.3861
     18 O8         29.9409   15.8215   63.0160 O.3         1 DAN      -0.3869
     19 O9         32.3526   17.9843   61.6688 O.3         1 DAN      -0.3924
     20 O10        25.4090   16.2540   63.0172 O.2         1 DAN      -0.3974
     21 H1         27.2331   20.7914   59.3422 H           1 DAN       0.0480
     22 H2         25.8860   20.3148   61.2744 H           1 DAN       0.0740
     23 H3         26.9049   18.4666   62.8771 H           1 DAN       0.0632
     24 H4         27.7318   16.4990   61.4340 H           1 DAN       0.0697
     25 H5         29.3373   18.2317   62.7448 H           1 DAN       0.0650
     26 H6         29.9821   15.8603   60.9906 H           1 DAN       0.0643
     27 H7         32.1987   16.1089   60.8255 H           1 DAN       0.0584
     28 H8         32.3170   16.1471   62.5976 H           1 DAN       0.0584
     29 H9         23.2425   15.5510   62.0883 H           1 DAN       0.0467
     30 H10        23.7932   16.0422   60.4767 H           1 DAN       0.0467
     31 H11        22.9441   17.2038   61.5191 H           1 DAN       0.0467
     32 H12        25.0642   18.2401   60.7097 H           1 DAN       0.1858
     33 H13        28.6537   20.3958   61.7539 H           1 DAN       0.2127
     34 H14        30.8387   19.1160   61.4261 H           1 DAN       0.2100
     35 H15        30.3131   16.3646   63.7462 H           1 DAN       0.2100
     36 H16        33.3034   17.8699   61.4819 H           1 DAN       0.2095
@<TRIPOS>BOND
     1     1    14  ar
     2     1    13  ar
     3     1     2   1
     4     2    16   1
     5     2     3   2
     6     3     4   1
     7     4    15   1
     8     4     5   1
     9     5    12   1
    10     5     6   1
    11     6    16   1
    12     6     7   1
    13     7    17   1
    14     7     8   1
    15     8    18   1
    16     8     9   1
    17     9    19   1
    18    12    10  am
    19    10    20   2
    20    10    11   1
    21     3    21   1
    22     4    22   1
    23     5    23   1
    24     6    24   1
    25     7    25   1
    26     8    26   1
    27     9    27   1
    28     9    28   1
    29    11    29   1
    30    11    30   1
    31    11    31   1
    32    12    32   1
    33    15    33   1
    34    17    34   1
    35    18    35   1
    36    19    36   1
@<TRIPOS>SUBSTRUCTURE
     1  DAN      1

