@<TRIPOS>MOLECULE
1f8b_ligand_005
    36    36
SMALL
GAST_HUCK
****
This file was generated by PARSER (from files_GN.cpp)

@<TRIPOS>ATOM
      1 C1         24.2023   19.9067   64.5827 C.2         1 DAN       0.0809
      2 C2         25.2546   19.1257   64.1372 C.2         1 DAN       0.1088
      3 C3         25.4654   17.8826   64.6130 C.2         1 DAN      -0.0276
      4 C4         26.5356   17.0263   64.1494 C.3         1 DAN       0.1003
      5 C5         27.1889   17.5091   62.8207 C.3         1 DAN       0.1064
      6 C6         27.3053   19.0785   62.7755 C.3         1 DAN       0.1321
      7 C7         28.4763   19.7172   63.6126 C.3         1 DAN       0.1154
      8 C8         29.9403   19.7450   63.0157 C.3         1 DAN       0.1068
      9 C9         30.2859   18.8262   61.8086 C.3         1 DAN       0.0727
     10 C10        26.8650   16.6353   60.5305 C.2         1 DAN       0.1734
     11 C11        25.9292   16.1140   59.5652 C.3         1 DAN       0.0257
     12 N5         26.4067   17.0412   61.7095 N.am        1 DAN      -0.2770
     13 O1A        24.1838   21.2307   64.3272 O.co2       1 DAN      -0.5623
     14 O1B        23.1428   19.4135   65.2713 O.co2       1 DAN      -0.5623
     15 O4         27.5231   16.9234   65.1756 O.3         1 DAN      -0.3807
     16 O6         26.0181   19.6497   63.1364 O.3         1 DAN      -0.3189
     17 O7         28.1139   21.0372   64.0359 O.3         1 DAN      -0.3861
     18 O8         30.3409   21.0773   62.6714 O.3         1 DAN      -0.3869
     19 O9         31.6773   18.8433   61.4873 O.3         1 DAN      -0.3924
     20 O10        28.0570   16.6817   60.2468 O.2         1 DAN      -0.3974
     21 H1         24.9008   17.5365   65.3550 H           1 DAN       0.0480
     22 H2         26.1307   16.0183   63.9990 H           1 DAN       0.0740
     23 H3         28.1829   17.0453   62.7725 H           1 DAN       0.0632
     24 H4         27.4711   19.3881   61.7414 H           1 DAN       0.0697
     25 H5         28.5207   19.1609   64.5572 H           1 DAN       0.0650
     26 H6         30.6147   19.4547   63.8318 H           1 DAN       0.0643
     27 H7         29.7184   19.1291   60.9250 H           1 DAN       0.0584
     28 H8         30.0271   17.7806   62.0545 H           1 DAN       0.0584
     29 H9         26.4234   15.8393   58.6324 H           1 DAN       0.0467
     30 H10        25.1662   16.8631   59.3469 H           1 DAN       0.0467
     31 H11        25.4455   15.2228   59.9732 H           1 DAN       0.0467
     32 H12        25.4479   16.9817   61.8465 H           1 DAN       0.1858
     33 H13        27.1028   16.3858   65.8851 H           1 DAN       0.2127
     34 H14        28.5202   21.6587   63.3760 H           1 DAN       0.2100
     35 H15        30.2169   21.1676   61.6885 H           1 DAN       0.2100
     36 H16        31.7880   19.6195   60.9070 H           1 DAN       0.2095
@<TRIPOS>BOND
     1     1    14  ar
     2     1    13  ar
     3     1     2   1
     4     2    16   1
     5     2     3   2
     6     3     4   1
     7     4    15   1
     8     4     5   1
     9     5    12   1
    10     5     6   1
    11     6    16   1
    12     6     7   1
    13     7    17   1
    14     7     8   1
    15     8    18   1
    16     8     9   1
    17     9    19   1
    18    12    10  am
    19    10    20   2
    20    10    11   1
    21     3    21   1
    22     4    22   1
    23     5    23   1
    24     6    24   1
    25     7    25   1
    26     8    26   1
    27     9    27   1
    28     9    28   1
    29    11    29   1
    30    11    30   1
    31    11    31   1
    32    12    32   1
    33    15    33   1
    34    17    34   1
    35    18    35   1
    36    19    36   1
@<TRIPOS>SUBSTRUCTURE
     1  DAN      1

