@<TRIPOS>MOLECULE
1f8b_ligand_041
    36    36
SMALL
GAST_HUCK
****
This file was generated by PARSER (from files_GN.cpp)

@<TRIPOS>ATOM
      1 C1         20.2973   21.9428   69.4700 C.2         1 DAN       0.0809
      2 C2         21.6427   21.9736   69.1828 C.2         1 DAN       0.1088
      3 C3         22.4589   22.9355   69.6794 C.2         1 DAN      -0.0276
      4 C4         23.8712   23.0033   69.3714 C.3         1 DAN       0.1003
      5 C5         24.3088   22.0719   68.1953 C.3         1 DAN       0.1064
      6 C6         23.5225   20.7224   68.3166 C.3         1 DAN       0.1321
      7 C7         23.8610   19.6830   67.1849 C.3         1 DAN       0.1154
      8 C8         24.0223   18.1973   67.6268 C.3         1 DAN       0.1068
      9 C9         24.9507   17.9894   68.8638 C.3         1 DAN       0.0727
     10 C10        26.5760   21.8605   67.2090 C.2         1 DAN       0.1734
     11 C11        27.9760   21.6136   67.4592 C.3         1 DAN       0.0257
     12 N5         25.7336   21.8722   68.2367 N.am        1 DAN      -0.2770
     13 O1A        19.8369   21.9814   70.7491 O.co2       1 DAN      -0.5623
     14 O1B        19.3789   21.7282   68.4930 O.co2       1 DAN      -0.5623
     15 O4         24.2513   24.3463   69.0725 O.3         1 DAN      -0.3807
     16 O6         22.1021   21.0318   68.3101 O.3         1 DAN      -0.3189
     17 O7         22.8743   19.7340   66.1414 O.3         1 DAN      -0.3861
     18 O8         22.7472   17.5945   67.8661 O.3         1 DAN      -0.3869
     19 O9         25.2764   16.6101   69.0362 O.3         1 DAN      -0.3924
     20 O10        26.1807   21.9634   66.0511 O.2         1 DAN      -0.3974
     21 H1         22.0949   23.6051   70.3213 H           1 DAN       0.0480
     22 H2         24.4096   22.7090   70.2793 H           1 DAN       0.0740
     23 H3         24.0045   22.5441   67.2477 H           1 DAN       0.0632
     24 H4         23.7684   20.2817   69.2954 H           1 DAN       0.0697
     25 H5         24.8127   19.9668   66.7113 H           1 DAN       0.0650
     26 H6         24.4790   17.6648   66.7840 H           1 DAN       0.0643
     27 H7         24.4513   18.3260   69.7743 H           1 DAN       0.0584
     28 H8         25.8881   18.5543   68.7399 H           1 DAN       0.0584
     29 H9         28.5456   21.5498   66.5274 H           1 DAN       0.0467
     30 H10        28.0908   20.6695   68.0014 H           1 DAN       0.0467
     31 H11        28.3871   22.4276   68.0636 H           1 DAN       0.0467
     32 H12        26.1231   21.7049   69.1143 H           1 DAN       0.1858
     33 H13        23.7335   24.5929   68.2750 H           1 DAN       0.2127
     34 H14        23.3796   19.6144   65.3099 H           1 DAN       0.2100
     35 H15        22.8526   16.6718   67.5494 H           1 DAN       0.2100
     36 H16        25.5720   16.3100   68.1503 H           1 DAN       0.2095
@<TRIPOS>BOND
     1     1    14  ar
     2     1    13  ar
     3     1     2   1
     4     2    16   1
     5     2     3   2
     6     3     4   1
     7     4    15   1
     8     4     5   1
     9     5    12   1
    10     5     6   1
    11     6    16   1
    12     6     7   1
    13     7    17   1
    14     7     8   1
    15     8    18   1
    16     8     9   1
    17     9    19   1
    18    12    10  am
    19    10    20   2
    20    10    11   1
    21     3    21   1
    22     4    22   1
    23     5    23   1
    24     6    24   1
    25     7    25   1
    26     8    26   1
    27     9    27   1
    28     9    28   1
    29    11    29   1
    30    11    30   1
    31    11    31   1
    32    12    32   1
    33    15    33   1
    34    17    34   1
    35    18    35   1
    36    19    36   1
@<TRIPOS>SUBSTRUCTURE
     1  DAN      1

