@<TRIPOS>MOLECULE
1f8b_ligand_008
    36    36
SMALL
GAST_HUCK
****
This file was generated by PARSER (from files_GN.cpp)

@<TRIPOS>ATOM
      1 C1         24.1894   19.7807   65.2753 C.2         1 DAN       0.0809
      2 C2         24.8862   20.6306   66.1094 C.2         1 DAN       0.1088
      3 C3         24.4468   20.9344   67.3477 C.2         1 DAN      -0.0276
      4 C4         25.2212   21.8015   68.2195 C.3         1 DAN       0.1003
      5 C5         26.7659   21.7535   67.9606 C.3         1 DAN       0.1064
      6 C6         27.1459   21.1249   66.5656 C.3         1 DAN       0.1321
      7 C7         28.4024   21.8042   65.9309 C.3         1 DAN       0.1154
      8 C8         29.2097   20.9374   64.9060 C.3         1 DAN       0.1068
      9 C9         28.8364   21.0846   63.4055 C.3         1 DAN       0.0727
     10 C10        28.4386   21.4044   69.7610 C.2         1 DAN       0.1734
     11 C11        29.0070   20.4638   70.6952 C.3         1 DAN       0.0257
     12 N5         27.4314   21.0057   68.9931 N.am        1 DAN      -0.2770
     13 O1A        24.8647   18.9182   64.4736 O.co2       1 DAN      -0.5623
     14 O1B        22.8304   19.7461   65.2553 O.co2       1 DAN      -0.5623
     15 O4         24.7036   23.1227   68.0526 O.3         1 DAN      -0.3807
     16 O6         26.0301   21.1747   65.6433 O.3         1 DAN      -0.3189
     17 O7         28.0640   23.0714   65.3653 O.3         1 DAN      -0.3861
     18 O8         30.6047   21.2481   65.0295 O.3         1 DAN      -0.3869
     19 O9         29.8197   20.4422   62.5883 O.3         1 DAN      -0.3924
     20 O10        28.9200   22.5235   69.6776 O.2         1 DAN      -0.3974
     21 H1         23.6090   20.5285   67.7022 H           1 DAN       0.0480
     22 H2         25.0033   21.5299   69.2565 H           1 DAN       0.0740
     23 H3         27.1117   22.7940   67.9961 H           1 DAN       0.0632
     24 H4         27.3770   20.0634   66.7213 H           1 DAN       0.0697
     25 H5         29.0858   22.0262   66.7573 H           1 DAN       0.0650
     26 H6         29.1154   19.8781   65.1690 H           1 DAN       0.0643
     27 H7         28.8086   22.1386   63.1241 H           1 DAN       0.0584
     28 H8         27.8597   20.6406   63.2025 H           1 DAN       0.0584
     29 H9         29.8638   20.8947   71.2348 H           1 DAN       0.0467
     30 H10        29.3473   19.5704   70.1728 H           1 DAN       0.0467
     31 H11        28.2509   20.1807   71.4356 H           1 DAN       0.0467
     32 H12        27.1397   20.0830   69.1135 H           1 DAN       0.1858
     33 H13        25.3720   23.6070   67.5187 H           1 DAN       0.2127
     34 H14        27.7002   23.6145   66.0835 H           1 DAN       0.2100
     35 H15        30.7000   22.1576   64.6851 H           1 DAN       0.2100
     36 H16        29.8569   20.9759   61.7503 H           1 DAN       0.2095
@<TRIPOS>BOND
     1     1    14  ar
     2     1    13  ar
     3     1     2   1
     4     2    16   1
     5     2     3   2
     6     3     4   1
     7     4    15   1
     8     4     5   1
     9     5    12   1
    10     5     6   1
    11     6    16   1
    12     6     7   1
    13     7    17   1
    14     7     8   1
    15     8    18   1
    16     8     9   1
    17     9    19   1
    18    12    10  am
    19    10    20   2
    20    10    11   1
    21     3    21   1
    22     4    22   1
    23     5    23   1
    24     6    24   1
    25     7    25   1
    26     8    26   1
    27     9    27   1
    28     9    28   1
    29    11    29   1
    30    11    30   1
    31    11    31   1
    32    12    32   1
    33    15    33   1
    34    17    34   1
    35    18    35   1
    36    19    36   1
@<TRIPOS>SUBSTRUCTURE
     1  DAN      1

