@<TRIPOS>MOLECULE
1f8b_ligand_003
    36    36
SMALL
GAST_HUCK
****
This file was generated by PARSER (from files_GN.cpp)

@<TRIPOS>ATOM
      1 C1         24.1949   20.0261   64.7039 C.2         1 DAN       0.0809
      2 C2         24.9962   19.0683   64.1110 C.2         1 DAN       0.1088
      3 C3         26.1982   19.3533   63.5666 C.2         1 DAN      -0.0276
      4 C4         26.9928   18.3117   62.9449 C.3         1 DAN       0.1003
      5 C5         26.0554   17.3714   62.1323 C.3         1 DAN       0.1064
      6 C6         24.9015   16.8474   63.0692 C.3         1 DAN       0.1321
      7 C7         23.5672   16.3345   62.4017 C.3         1 DAN       0.1154
      8 C8         23.4696   16.1224   60.8351 C.3         1 DAN       0.1068
      9 C9         23.0668   14.7059   60.3124 C.3         1 DAN       0.0727
     10 C10        27.2302   15.1694   61.8299 C.2         1 DAN       0.1734
     11 C11        27.8857   14.3090   60.8698 C.3         1 DAN       0.0257
     12 N5         26.7776   16.3535   61.4151 N.am        1 DAN      -0.2770
     13 O1A        24.6499   21.2773   64.9572 O.co2       1 DAN      -0.5623
     14 O1B        22.9333   19.7450   65.1112 O.co2       1 DAN      -0.5623
     15 O4         27.9806   18.8754   62.0820 O.3         1 DAN      -0.3807
     16 O6         24.5398   17.7954   64.1225 O.3         1 DAN      -0.3189
     17 O7         23.1538   15.1814   63.1388 O.3         1 DAN      -0.3861
     18 O8         22.5635   17.0907   60.2940 O.3         1 DAN      -0.3869
     19 O9         24.2077   14.0698   59.7247 O.3         1 DAN      -0.3924
     20 O10        27.0745   14.7854   62.9896 O.2         1 DAN      -0.3974
     21 H1         26.5249   20.2911   63.5467 H           1 DAN       0.0480
     22 H2         27.4958   17.7410   63.7296 H           1 DAN       0.0740
     23 H3         25.5990   18.0090   61.3659 H           1 DAN       0.0632
     24 H4         25.3420   16.0131   63.6284 H           1 DAN       0.0697
     25 H5         22.8009   17.0775   62.6541 H           1 DAN       0.0650
     26 H6         24.4154   16.3668   60.3548 H           1 DAN       0.0643
     27 H7         22.2919   14.7975   59.5395 H           1 DAN       0.0584
     28 H8         22.6610   14.0592   61.0997 H           1 DAN       0.0584
     29 H9         28.0739   13.3141   61.2843 H           1 DAN       0.0467
     30 H10        28.8436   14.7487   60.5702 H           1 DAN       0.0467
     31 H11        27.2545   14.1957   59.9818 H           1 DAN       0.0467
     32 H12        26.9238   16.5423   60.4696 H           1 DAN       0.1858
     33 H13        28.6088   19.3405   62.6744 H           1 DAN       0.2127
     34 H14        23.8270   14.4935   62.9521 H           1 DAN       0.2100
     35 H15        23.0990   17.9091   60.2081 H           1 DAN       0.2100
     36 H16        23.9009   13.1679   59.5015 H           1 DAN       0.2095
@<TRIPOS>BOND
     1     1    14  ar
     2     1    13  ar
     3     1     2   1
     4     2    16   1
     5     2     3   2
     6     3     4   1
     7     4    15   1
     8     4     5   1
     9     5    12   1
    10     5     6   1
    11     6    16   1
    12     6     7   1
    13     7    17   1
    14     7     8   1
    15     8    18   1
    16     8     9   1
    17     9    19   1
    18    12    10  am
    19    10    20   2
    20    10    11   1
    21     3    21   1
    22     4    22   1
    23     5    23   1
    24     6    24   1
    25     7    25   1
    26     8    26   1
    27     9    27   1
    28     9    28   1
    29    11    29   1
    30    11    30   1
    31    11    31   1
    32    12    32   1
    33    15    33   1
    34    17    34   1
    35    18    35   1
    36    19    36   1
@<TRIPOS>SUBSTRUCTURE
     1  DAN      1

