@<TRIPOS>MOLECULE
1f8b_ligand_053
    36    36
SMALL
GAST_HUCK
****
This file was generated by PARSER (from files_GN.cpp)

@<TRIPOS>ATOM
      1 C1         25.9292   14.9389   62.1818 C.2         1 DAN       0.0809
      2 C2         25.2826   15.9701   62.8199 C.2         1 DAN       0.1088
      3 C3         24.0678   15.8430   63.3888 C.2         1 DAN      -0.0276
      4 C4         23.4108   17.0184   63.9462 C.3         1 DAN       0.1003
      5 C5         24.4109   18.0414   64.6058 C.3         1 DAN       0.1064
      6 C6         25.8997   17.8082   64.1463 C.3         1 DAN       0.1321
      7 C7         26.8163   19.0624   64.0074 C.3         1 DAN       0.1154
      8 C8         26.8828   20.0290   65.2347 C.3         1 DAN       0.1068
      9 C9         28.1601   20.9151   65.2994 C.3         1 DAN       0.0727
     10 C10        23.5112   18.6184   66.8417 C.2         1 DAN       0.1734
     11 C11        23.5016   18.2958   68.2463 C.3         1 DAN       0.0257
     12 N5         24.3178   17.9363   66.0392 N.am        1 DAN      -0.2770
     13 O1A        26.7010   14.0996   62.9148 O.co2       1 DAN      -0.5623
     14 O1B        26.2442   15.0670   60.8703 O.co2       1 DAN      -0.5623
     15 O4         22.7028   17.6625   62.8855 O.3         1 DAN      -0.3807
     16 O6         25.8925   17.1731   62.8372 O.3         1 DAN      -0.3189
     17 O7         28.1326   18.5909   63.6896 O.3         1 DAN      -0.3861
     18 O8         25.7624   20.9023   65.2214 O.3         1 DAN      -0.3869
     19 O9         28.9170   20.9160   64.0861 O.3         1 DAN      -0.3924
     20 O10        22.7534   19.4836   66.4222 O.2         1 DAN      -0.3974
     21 H1         23.5795   14.9681   63.3730 H           1 DAN       0.0480
     22 H2         22.6573   16.6981   64.6710 H           1 DAN       0.0740
     23 H3         24.1181   19.0479   64.2868 H           1 DAN       0.0632
     24 H4         26.3925   17.1283   64.8537 H           1 DAN       0.0697
     25 H5         26.4773   19.6318   63.1358 H           1 DAN       0.0650
     26 H6         26.8405   19.4562   66.1583 H           1 DAN       0.0643
     27 H7         28.8150   20.5430   66.0961 H           1 DAN       0.0584
     28 H8         27.8966   21.9525   65.5495 H           1 DAN       0.0584
     29 H9         22.7634   18.8911   68.7964 H           1 DAN       0.0467
     30 H10        24.4905   18.4941   68.6715 H           1 DAN       0.0467
     31 H11        23.2592   17.2367   68.3809 H           1 DAN       0.0467
     32 H12        24.8358   17.2203   66.4531 H           1 DAN       0.1858
     33 H13        21.7870   17.3342   62.9544 H           1 DAN       0.2127
     34 H14        28.4468   18.1100   64.4896 H           1 DAN       0.2100
     35 H15        25.0910   20.5246   65.8418 H           1 DAN       0.2100
     36 H16        28.3865   21.4444   63.4471 H           1 DAN       0.2095
@<TRIPOS>BOND
     1     1    14  ar
     2     1    13  ar
     3     1     2   1
     4     2    16   1
     5     2     3   2
     6     3     4   1
     7     4    15   1
     8     4     5   1
     9     5    12   1
    10     5     6   1
    11     6    16   1
    12     6     7   1
    13     7    17   1
    14     7     8   1
    15     8    18   1
    16     8     9   1
    17     9    19   1
    18    12    10  am
    19    10    20   2
    20    10    11   1
    21     3    21   1
    22     4    22   1
    23     5    23   1
    24     6    24   1
    25     7    25   1
    26     8    26   1
    27     9    27   1
    28     9    28   1
    29    11    29   1
    30    11    30   1
    31    11    31   1
    32    12    32   1
    33    15    33   1
    34    17    34   1
    35    18    35   1
    36    19    36   1
@<TRIPOS>SUBSTRUCTURE
     1  DAN      1

