@<TRIPOS>MOLECULE
1f8b_ligand_040
    36    36
SMALL
GAST_HUCK
****
This file was generated by PARSER (from files_GN.cpp)

@<TRIPOS>ATOM
      1 C1         28.9779   16.6045   64.5046 C.2         1 DAN       0.0809
      2 C2         27.9927   16.2001   63.6140 C.2         1 DAN       0.1088
      3 C3         28.2280   15.2484   62.6938 C.2         1 DAN      -0.0276
      4 C4         27.1920   14.7500   61.7993 C.3         1 DAN       0.1003
      5 C5         26.0539   15.7896   61.5890 C.3         1 DAN       0.1064
      6 C6         25.6557   16.4097   62.9732 C.3         1 DAN       0.1321
      7 C7         24.6329   17.5807   62.8630 C.3         1 DAN       0.1154
      8 C8         23.7415   17.8132   64.1293 C.3         1 DAN       0.1068
      9 C9         24.1582   18.9705   65.0770 C.3         1 DAN       0.0727
     10 C10        23.9199   14.5678   61.2836 C.2         1 DAN       0.1734
     11 C11        22.8523   14.2491   60.3653 C.3         1 DAN       0.0257
     12 N5         24.9517   15.2688   60.8313 N.am        1 DAN      -0.2770
     13 O1A        29.2048   15.9159   65.6539 O.co2       1 DAN      -0.5623
     14 O1B        29.5771   17.8133   64.3676 O.co2       1 DAN      -0.5623
     15 O4         27.7672   14.3776   60.5458 O.3         1 DAN      -0.3807
     16 O6         26.8250   16.9016   63.6696 O.3         1 DAN      -0.3189
     17 O7         25.3637   18.7467   62.4979 O.3         1 DAN      -0.3861
     18 O8         22.3840   18.0425   63.7365 O.3         1 DAN      -0.3869
     19 O9         23.4683   20.1880   64.7969 O.3         1 DAN      -0.3924
     20 O10        23.8225   14.2258   62.4530 O.2         1 DAN      -0.3974
     21 H1         29.1432   14.8464   62.6077 H           1 DAN       0.0480
     22 H2         26.7833   13.8388   62.2413 H           1 DAN       0.0740
     23 H3         26.4816   16.5882   60.9773 H           1 DAN       0.0632
     24 H4         25.2180   15.6287   63.5959 H           1 DAN       0.0697
     25 H5         23.9638   17.3443   62.0315 H           1 DAN       0.0650
     26 H6         23.7269   16.8879   64.7163 H           1 DAN       0.0643
     27 H7         25.2307   19.1575   65.0107 H           1 DAN       0.0584
     28 H8         23.9371   18.6993   66.1101 H           1 DAN       0.0584
     29 H9         22.0109   13.7544   60.8743 H           1 DAN       0.0467
     30 H10        23.2344   13.5873   59.5824 H           1 DAN       0.0467
     31 H11        22.4821   15.1699   59.8975 H           1 DAN       0.0467
     32 H12        24.9393   15.4796   59.8885 H           1 DAN       0.1858
     33 H13        27.0917   13.8042   60.1063 H           1 DAN       0.2127
     34 H14        24.6879   19.4317   62.3494 H           1 DAN       0.2100
     35 H15        22.0490   17.1745   63.4250 H           1 DAN       0.2100
     36 H16        23.1544   20.0725   63.8794 H           1 DAN       0.2095
@<TRIPOS>BOND
     1     1    14  ar
     2     1    13  ar
     3     1     2   1
     4     2    16   1
     5     2     3   2
     6     3     4   1
     7     4    15   1
     8     4     5   1
     9     5    12   1
    10     5     6   1
    11     6    16   1
    12     6     7   1
    13     7    17   1
    14     7     8   1
    15     8    18   1
    16     8     9   1
    17     9    19   1
    18    12    10  am
    19    10    20   2
    20    10    11   1
    21     3    21   1
    22     4    22   1
    23     5    23   1
    24     6    24   1
    25     7    25   1
    26     8    26   1
    27     9    27   1
    28     9    28   1
    29    11    29   1
    30    11    30   1
    31    11    31   1
    32    12    32   1
    33    15    33   1
    34    17    34   1
    35    18    35   1
    36    19    36   1
@<TRIPOS>SUBSTRUCTURE
     1  DAN      1

