@<TRIPOS>MOLECULE
1f8b_ligand_031
    36    36
SMALL
GAST_HUCK
****
This file was generated by PARSER (from files_GN.cpp)

@<TRIPOS>ATOM
      1 C1         27.7130   19.5099   59.5059 C.2         1 DAN       0.0809
      2 C2         27.1780   18.2791   59.8346 C.2         1 DAN       0.1088
      3 C3         27.4777   17.1593   59.1281 C.2         1 DAN      -0.0276
      4 C4         27.0155   15.8271   59.5328 C.3         1 DAN       0.1003
      5 C5         25.8566   15.8867   60.5878 C.3         1 DAN       0.1064
      6 C6         26.2103   17.0036   61.6223 C.3         1 DAN       0.1321
      7 C7         25.2702   17.2380   62.8474 C.3         1 DAN       0.1154
      8 C8         23.7364   17.0169   62.6770 C.3         1 DAN       0.1068
      9 C9         22.9011   17.8123   63.7230 C.3         1 DAN       0.0727
     10 C10        26.0646   13.8993   62.0794 C.2         1 DAN       0.1734
     11 C11        25.4357   12.6608   62.4626 C.3         1 DAN       0.0257
     12 N5         25.4991   14.6038   61.1045 N.am        1 DAN      -0.2770
     13 O1A        27.1006   20.6493   59.8955 O.co2       1 DAN      -0.5623
     14 O1B        28.9766   19.6223   59.0193 O.co2       1 DAN      -0.5623
     15 O4         26.5973   15.0854   58.3843 O.3         1 DAN      -0.3807
     16 O6         26.3125   18.2473   60.8805 O.3         1 DAN      -0.3189
     17 O7         25.7233   16.4363   63.9496 O.3         1 DAN      -0.3861
     18 O8         23.3012   17.3142   61.3446 O.3         1 DAN      -0.3869
     19 O9         21.7209   18.3783   63.1650 O.3         1 DAN      -0.3924
     20 O10        27.0490   14.3094   62.6927 O.2         1 DAN      -0.3974
     21 H1         28.0991   17.2075   58.3521 H           1 DAN       0.0480
     22 H2         27.8694   15.3024   59.9754 H           1 DAN       0.0740
     23 H3         24.9647   16.2226   60.0412 H           1 DAN       0.0632
     24 H4         27.2164   16.8130   62.0270 H           1 DAN       0.0697
     25 H5         25.4449   18.2772   63.1575 H           1 DAN       0.0650
     26 H6         23.5252   15.9510   62.8017 H           1 DAN       0.0643
     27 H7         23.4795   18.6430   64.1430 H           1 DAN       0.0584
     28 H8         22.6109   17.1426   64.5464 H           1 DAN       0.0584
     29 H9         25.8403   12.2952   63.4073 H           1 DAN       0.0467
     30 H10        25.6057   11.9053   61.6877 H           1 DAN       0.0467
     31 H11        24.3571   12.8120   62.5894 H           1 DAN       0.0467
     32 H12        24.7113   14.1963   60.7040 H           1 DAN       0.1858
     33 H13        25.7367   15.4698   58.1192 H           1 DAN       0.2127
     34 H14        26.5550   16.8728   64.2439 H           1 DAN       0.2100
     35 H15        23.8089   18.0898   61.0461 H           1 DAN       0.2100
     36 H16        21.1371   17.6139   62.9979 H           1 DAN       0.2095
@<TRIPOS>BOND
     1     1    14  ar
     2     1    13  ar
     3     1     2   1
     4     2    16   1
     5     2     3   2
     6     3     4   1
     7     4    15   1
     8     4     5   1
     9     5    12   1
    10     5     6   1
    11     6    16   1
    12     6     7   1
    13     7    17   1
    14     7     8   1
    15     8    18   1
    16     8     9   1
    17     9    19   1
    18    12    10  am
    19    10    20   2
    20    10    11   1
    21     3    21   1
    22     4    22   1
    23     5    23   1
    24     6    24   1
    25     7    25   1
    26     8    26   1
    27     9    27   1
    28     9    28   1
    29    11    29   1
    30    11    30   1
    31    11    31   1
    32    12    32   1
    33    15    33   1
    34    17    34   1
    35    18    35   1
    36    19    36   1
@<TRIPOS>SUBSTRUCTURE
     1  DAN      1

