@<TRIPOS>MOLECULE
1f8b_ligand_063
    36    36
SMALL
GAST_HUCK
****
This file was generated by PARSER (from files_GN.cpp)

@<TRIPOS>ATOM
      1 C1         28.0864   16.7687   65.7326 C.2         1 DAN       0.0809
      2 C2         27.5895   16.7121   64.4465 C.2         1 DAN       0.1088
      3 C3         26.8872   15.6599   63.9711 C.2         1 DAN      -0.0276
      4 C4         26.3960   15.6875   62.6007 C.3         1 DAN       0.1003
      5 C5         27.5509   16.1865   61.6874 C.3         1 DAN       0.1064
      6 C6         28.1540   17.5272   62.2530 C.3         1 DAN       0.1321
      7 C7         29.7126   17.6151   62.0727 C.3         1 DAN       0.1154
      8 C8         30.2599   19.0449   61.8204 C.3         1 DAN       0.1068
      9 C9         30.0132   20.0546   62.9772 C.3         1 DAN       0.0727
     10 C10        26.1800   16.6204   59.6405 C.2         1 DAN       0.1734
     11 C11        26.2526   16.9179   58.2287 C.3         1 DAN       0.0257
     12 N5         27.3038   16.2929   60.2649 N.am        1 DAN      -0.2770
     13 O1A        27.8983   17.8781   66.5007 O.co2       1 DAN      -0.5623
     14 O1B        28.8292   15.7585   66.2691 O.co2       1 DAN      -0.5623
     15 O4         25.9268   14.4081   62.1810 O.3         1 DAN      -0.3807
     16 O6         27.7851   17.7916   63.6378 O.3         1 DAN      -0.3189
     17 O7         30.3693   17.0044   63.1860 O.3         1 DAN      -0.3861
     18 O8         31.6560   18.9505   61.5586 O.3         1 DAN      -0.3869
     19 O9         30.4713   21.3561   62.6243 O.3         1 DAN      -0.3924
     20 O10        25.1099   16.7236   60.2330 O.2         1 DAN      -0.3974
     21 H1         26.7335   14.8544   64.5345 H           1 DAN       0.0480
     22 H2         25.5530   16.3854   62.5818 H           1 DAN       0.0740
     23 H3         28.3259   15.4136   61.7642 H           1 DAN       0.0632
     24 H4         27.6971   18.3500   61.6833 H           1 DAN       0.0697
     25 H5         29.9770   17.0291   61.1872 H           1 DAN       0.0650
     26 H6         29.7853   19.4288   60.9158 H           1 DAN       0.0643
     27 H7         30.5413   19.7395   63.8807 H           1 DAN       0.0584
     28 H8         28.9469   20.1254   63.1994 H           1 DAN       0.0584
     29 H9         25.2819   17.2123   57.8338 H           1 DAN       0.0467
     30 H10        26.6031   16.0372   57.6866 H           1 DAN       0.0467
     31 H11        26.9547   17.7388   58.0632 H           1 DAN       0.0467
     32 H12        28.0953   16.2463   59.7077 H           1 DAN       0.1858
     33 H13        25.1178   14.2397   62.7070 H           1 DAN       0.2127
     34 H14        31.2557   16.7364   62.8554 H           1 DAN       0.2100
     35 H15        31.8273   19.6679   60.9062 H           1 DAN       0.2100
     36 H16        30.3292   21.4227   61.6542 H           1 DAN       0.2095
@<TRIPOS>BOND
     1     1    14  ar
     2     1    13  ar
     3     1     2   1
     4     2    16   1
     5     2     3   2
     6     3     4   1
     7     4    15   1
     8     4     5   1
     9     5    12   1
    10     5     6   1
    11     6    16   1
    12     6     7   1
    13     7    17   1
    14     7     8   1
    15     8    18   1
    16     8     9   1
    17     9    19   1
    18    12    10  am
    19    10    20   2
    20    10    11   1
    21     3    21   1
    22     4    22   1
    23     5    23   1
    24     6    24   1
    25     7    25   1
    26     8    26   1
    27     9    27   1
    28     9    28   1
    29    11    29   1
    30    11    30   1
    31    11    31   1
    32    12    32   1
    33    15    33   1
    34    17    34   1
    35    18    35   1
    36    19    36   1
@<TRIPOS>SUBSTRUCTURE
     1  DAN      1

