@<TRIPOS>MOLECULE
1f8b_ligand_042
    36    36
SMALL
GAST_HUCK
****
This file was generated by PARSER (from files_GN.cpp)

@<TRIPOS>ATOM
      1 C1         24.7863   20.4351   66.3211 C.2         1 DAN       0.0809
      2 C2         25.0364   19.5857   67.3749 C.2         1 DAN       0.1088
      3 C3         26.0536   18.7044   67.4086 C.2         1 DAN      -0.0276
      4 C4         26.1362   17.7598   68.5045 C.3         1 DAN       0.1003
      5 C5         24.7000   17.2372   68.8413 C.3         1 DAN       0.1064
      6 C6         23.7097   18.4477   69.0191 C.3         1 DAN       0.1321
      7 C7         22.2562   18.2409   68.4929 C.3         1 DAN       0.1154
      8 C8         21.5630   16.9150   68.9534 C.3         1 DAN       0.1068
      9 C9         20.1452   17.0338   69.5755 C.3         1 DAN       0.0727
     10 C10        24.8524   15.0938   70.0757 C.2         1 DAN       0.1734
     11 C11        24.7780   14.4587   71.3728 C.3         1 DAN       0.0257
     12 N5         24.7429   16.4128   70.0203 N.am        1 DAN      -0.2770
     13 O1A        25.7719   21.1564   65.7171 O.co2       1 DAN      -0.5623
     14 O1B        23.5190   20.5592   65.8579 O.co2       1 DAN      -0.5623
     15 O4         27.0176   16.6885   68.1585 O.3         1 DAN      -0.3807
     16 O6         24.2077   19.6646   68.4363 O.3         1 DAN      -0.3189
     17 O7         21.4926   19.3929   68.8471 O.3         1 DAN      -0.3861
     18 O8         21.4425   16.0441   67.8177 O.3         1 DAN      -0.3869
     19 O9         20.1297   17.9903   70.6335 O.3         1 DAN      -0.3924
     20 O10        25.0236   14.4017   69.0777 O.2         1 DAN      -0.3974
     21 H1         26.6622   18.6128   66.6234 H           1 DAN       0.0480
     22 H2         26.5611   18.2693   69.3760 H           1 DAN       0.0740
     23 H3         24.3731   16.6440   67.9834 H           1 DAN       0.0632
     24 H4         23.6381   18.6741   70.0828 H           1 DAN       0.0697
     25 H5         22.2935   18.2513   67.4022 H           1 DAN       0.0650
     26 H6         22.1816   16.4106   69.7037 H           1 DAN       0.0643
     27 H7         19.8535   16.0608   69.9919 H           1 DAN       0.0584
     28 H8         19.4167   17.3193   68.8088 H           1 DAN       0.0584
     29 H9         24.8879   13.3754   71.2996 H           1 DAN       0.0467
     30 H10        23.8111   14.6777   71.8271 H           1 DAN       0.0467
     31 H11        25.5688   14.8456   72.0163 H           1 DAN       0.0467
     32 H12        24.6640   16.8708   70.8731 H           1 DAN       0.1858
     33 H13        26.9184   16.0312   68.8761 H           1 DAN       0.2127
     34 H14        21.4203   19.3848   69.8228 H           1 DAN       0.2100
     35 H15        21.8460   15.1858   68.0889 H           1 DAN       0.2100
     36 H16        19.2111   17.9469   70.9862 H           1 DAN       0.2095
@<TRIPOS>BOND
     1     1    14  ar
     2     1    13  ar
     3     1     2   1
     4     2    16   1
     5     2     3   2
     6     3     4   1
     7     4    15   1
     8     4     5   1
     9     5    12   1
    10     5     6   1
    11     6    16   1
    12     6     7   1
    13     7    17   1
    14     7     8   1
    15     8    18   1
    16     8     9   1
    17     9    19   1
    18    12    10  am
    19    10    20   2
    20    10    11   1
    21     3    21   1
    22     4    22   1
    23     5    23   1
    24     6    24   1
    25     7    25   1
    26     8    26   1
    27     9    27   1
    28     9    28   1
    29    11    29   1
    30    11    30   1
    31    11    31   1
    32    12    32   1
    33    15    33   1
    34    17    34   1
    35    18    35   1
    36    19    36   1
@<TRIPOS>SUBSTRUCTURE
     1  DAN      1

