@<TRIPOS>MOLECULE
1f8b_ligand_069
    36    36
SMALL
GAST_HUCK
****
This file was generated by PARSER (from files_GN.cpp)

@<TRIPOS>ATOM
      1 C1         27.8090   19.3742   58.6842 C.2         1 DAN       0.0809
      2 C2         28.3372   18.6232   59.6983 C.2         1 DAN       0.1088
      3 C3         28.1750   17.2852   59.7793 C.2         1 DAN      -0.0276
      4 C4         28.7145   16.5381   60.8946 C.3         1 DAN       0.1003
      5 C5         28.5417   17.3573   62.2100 C.3         1 DAN       0.1064
      6 C6         29.0635   18.8257   62.0056 C.3         1 DAN       0.1321
      7 C7         28.3325   19.8766   62.9067 C.3         1 DAN       0.1154
      8 C8         29.1522   21.1744   63.2632 C.3         1 DAN       0.1068
      9 C9         29.2113   21.4690   64.7991 C.3         1 DAN       0.0727
     10 C10        30.3799   16.5375   63.6834 C.2         1 DAN       0.1734
     11 C11        30.7070   15.8986   64.9420 C.3         1 DAN       0.0257
     12 N5         29.1040   16.7093   63.3651 N.am        1 DAN      -0.2770
     13 O1A        27.9752   19.0369   57.3772 O.co2       1 DAN      -0.5623
     14 O1B        27.2229   20.5672   58.9547 O.co2       1 DAN      -0.5623
     15 O4         28.0636   15.2724   61.0377 O.3         1 DAN      -0.3807
     16 O6         29.0488   19.2873   60.6367 O.3         1 DAN      -0.3189
     17 O7         27.0970   20.2357   62.2772 O.3         1 DAN      -0.3861
     18 O8         30.4687   21.1897   62.6957 O.3         1 DAN      -0.3869
     19 O9         30.5232   21.7136   65.3039 O.3         1 DAN      -0.3924
     20 O10        31.2974   16.8619   62.9385 O.2         1 DAN      -0.3974
     21 H1         27.5987   16.8113   59.1110 H           1 DAN       0.0480
     22 H2         29.7762   16.3569   60.7053 H           1 DAN       0.0740
     23 H3         27.4689   17.4083   62.3926 H           1 DAN       0.0632
     24 H4         30.1201   18.8244   62.2724 H           1 DAN       0.0697
     25 H5         28.0414   19.3623   63.8208 H           1 DAN       0.0650
     26 H6         28.6623   22.0317   62.7942 H           1 DAN       0.0643
     27 H7         28.8283   20.6402   65.3958 H           1 DAN       0.0584
     28 H8         28.5848   22.3339   65.0305 H           1 DAN       0.0584
     29 H9         31.7660   16.0045   65.1847 H           1 DAN       0.0467
     30 H10        30.4729   14.8375   64.8643 H           1 DAN       0.0467
     31 H11        30.1221   16.3370   65.7549 H           1 DAN       0.0467
     32 H12        28.4605   16.3671   64.0130 H           1 DAN       0.1858
     33 H13        28.3772   14.7232   60.2817 H           1 DAN       0.2127
     34 H14        26.4778   20.4405   63.0148 H           1 DAN       0.2100
     35 H15        30.3514   21.3634   61.7342 H           1 DAN       0.2100
     36 H16        30.7974   22.5620   64.9216 H           1 DAN       0.2095
@<TRIPOS>BOND
     1     1    14  ar
     2     1    13  ar
     3     1     2   1
     4     2    16   1
     5     2     3   2
     6     3     4   1
     7     4    15   1
     8     4     5   1
     9     5    12   1
    10     5     6   1
    11     6    16   1
    12     6     7   1
    13     7    17   1
    14     7     8   1
    15     8    18   1
    16     8     9   1
    17     9    19   1
    18    12    10  am
    19    10    20   2
    20    10    11   1
    21     3    21   1
    22     4    22   1
    23     5    23   1
    24     6    24   1
    25     7    25   1
    26     8    26   1
    27     9    27   1
    28     9    28   1
    29    11    29   1
    30    11    30   1
    31    11    31   1
    32    12    32   1
    33    15    33   1
    34    17    34   1
    35    18    35   1
    36    19    36   1
@<TRIPOS>SUBSTRUCTURE
     1  DAN      1

