@<TRIPOS>MOLECULE
1f8b_ligand_019
    36    36
SMALL
GAST_HUCK
****
This file was generated by PARSER (from files_GN.cpp)

@<TRIPOS>ATOM
      1 C1         24.3337   20.3346   65.5870 C.2         1 DAN       0.0809
      2 C2         25.5070   19.8576   66.1456 C.2         1 DAN       0.1088
      3 C3         25.6279   18.5712   66.5474 C.2         1 DAN      -0.0276
      4 C4         26.8575   18.0647   67.1191 C.3         1 DAN       0.1003
      5 C5         27.6860   19.1741   67.8332 C.3         1 DAN       0.1064
      6 C6         27.7534   20.4602   66.9420 C.3         1 DAN       0.1321
      7 C7         28.2725   21.7067   67.7388 C.3         1 DAN       0.1154
      8 C8         29.0989   22.7665   66.9505 C.3         1 DAN       0.1068
      9 C9         30.5437   22.3254   66.5976 C.3         1 DAN       0.0727
     10 C10        29.6080   18.5175   69.2590 C.2         1 DAN       0.1734
     11 C11        30.9679   18.0339   69.2746 C.3         1 DAN       0.0257
     12 N5         29.0172   18.6990   68.0860 N.am        1 DAN      -0.2770
     13 O1A        24.4239   21.2296   64.5749 O.co2       1 DAN      -0.5623
     14 O1B        23.1025   19.8181   65.8540 O.co2       1 DAN      -0.5623
     15 O4         26.5479   17.0340   68.0644 O.3         1 DAN      -0.3807
     16 O6         26.4703   20.7920   66.3518 O.3         1 DAN      -0.3189
     17 O7         27.1756   22.3440   68.3886 O.3         1 DAN      -0.3861
     18 O8         28.4259   23.2152   65.7798 O.3         1 DAN      -0.3869
     19 O9         30.6277   21.5839   65.3865 O.3         1 DAN      -0.3924
     20 O10        29.0204   18.7180   70.3244 O.2         1 DAN      -0.3974
     21 H1         24.9090   17.9097   66.3483 H           1 DAN       0.0480
     22 H2         27.4471   17.6254   66.3039 H           1 DAN       0.0740
     23 H3         27.1641   19.4357   68.7628 H           1 DAN       0.0632
     24 H4         28.4226   20.2477   66.1064 H           1 DAN       0.0697
     25 H5         28.9128   21.3622   68.5567 H           1 DAN       0.0650
     26 H6         29.2038   23.6394   67.6011 H           1 DAN       0.0643
     27 H7         30.9580   21.7126   67.4080 H           1 DAN       0.0584
     28 H8         31.1844   23.2093   66.4952 H           1 DAN       0.0584
     29 H9         31.3315   17.8778   70.3012 H           1 DAN       0.0467
     30 H10        31.6251   18.7663   68.7888 H           1 DAN       0.0467
     31 H11        31.0341   17.0825   68.7373 H           1 DAN       0.0467
     32 H12        29.5487   18.4751   67.3009 H           1 DAN       0.1858
     33 H13        27.3629   16.4910   68.1258 H           1 DAN       0.2127
     34 H14        26.7684   22.9316   67.7091 H           1 DAN       0.2100
     35 H15        27.7495   23.8513   66.0865 H           1 DAN       0.2100
     36 H16        30.7218   22.2689   64.6965 H           1 DAN       0.2095
@<TRIPOS>BOND
     1     1    14  ar
     2     1    13  ar
     3     1     2   1
     4     2    16   1
     5     2     3   2
     6     3     4   1
     7     4    15   1
     8     4     5   1
     9     5    12   1
    10     5     6   1
    11     6    16   1
    12     6     7   1
    13     7    17   1
    14     7     8   1
    15     8    18   1
    16     8     9   1
    17     9    19   1
    18    12    10  am
    19    10    20   2
    20    10    11   1
    21     3    21   1
    22     4    22   1
    23     5    23   1
    24     6    24   1
    25     7    25   1
    26     8    26   1
    27     9    27   1
    28     9    28   1
    29    11    29   1
    30    11    30   1
    31    11    31   1
    32    12    32   1
    33    15    33   1
    34    17    34   1
    35    18    35   1
    36    19    36   1
@<TRIPOS>SUBSTRUCTURE
     1  DAN      1

