@<TRIPOS>MOLECULE
1f8b_ligand_018
    36    36
SMALL
GAST_HUCK
****
This file was generated by PARSER (from files_GN.cpp)

@<TRIPOS>ATOM
      1 C1         25.4627   20.7736   66.4574 C.2         1 DAN       0.0809
      2 C2         24.9592   20.0671   65.3883 C.2         1 DAN       0.1088
      3 C3         24.0150   19.1161   65.5175 C.2         1 DAN      -0.0276
      4 C4         23.5138   18.4146   64.3533 C.3         1 DAN       0.1003
      5 C5         24.6821   18.0870   63.3838 C.3         1 DAN       0.1064
      6 C6         25.5179   19.3967   63.1254 C.3         1 DAN       0.1321
      7 C7         27.0123   19.1107   62.7640 C.3         1 DAN       0.1154
      8 C8         27.7101   20.2297   61.9125 C.3         1 DAN       0.1068
      9 C9         28.5886   21.2614   62.6827 C.3         1 DAN       0.0727
     10 C10        23.6747   16.3734   61.8960 C.2         1 DAN       0.1734
     11 C11        23.3823   16.0076   60.5321 C.3         1 DAN       0.0257
     12 N5         24.2404   17.5525   62.1197 N.am        1 DAN      -0.2770
     13 O1A        26.1928   21.8905   66.2418 O.co2       1 DAN      -0.5623
     14 O1B        25.3315   20.3703   67.7434 O.co2       1 DAN      -0.5623
     15 O4         22.8149   17.2485   64.7804 O.3         1 DAN      -0.3807
     16 O6         25.4298   20.4035   64.1667 O.3         1 DAN      -0.3189
     17 O7         27.7595   18.7894   63.9534 O.3         1 DAN      -0.3861
     18 O8         28.4953   19.6301   60.8710 O.3         1 DAN      -0.3869
     19 O9         29.9921   20.9851   62.5574 O.3         1 DAN      -0.3924
     20 O10        23.4418   15.5846   62.8084 O.2         1 DAN      -0.3974
     21 H1         23.6859   18.8589   66.4183 H           1 DAN       0.0480
     22 H2         22.7910   19.0652   63.8471 H           1 DAN       0.0740
     23 H3         25.3374   17.3550   63.8760 H           1 DAN       0.0632
     24 H4         25.0809   19.8909   62.2639 H           1 DAN       0.0697
     25 H5         27.0273   18.1996   62.1532 H           1 DAN       0.0650
     26 H6         26.9460   20.7993   61.3782 H           1 DAN       0.0643
     27 H7         28.3285   21.2758   63.7468 H           1 DAN       0.0584
     28 H8         28.4177   22.2644   62.2740 H           1 DAN       0.0584
     29 H9         22.8820   15.0395   60.4752 H           1 DAN       0.0467
     30 H10        24.3120   15.9517   59.9670 H           1 DAN       0.0467
     31 H11        22.7376   16.7591   60.0791 H           1 DAN       0.0467
     32 H12        24.4314   18.0848   61.3263 H           1 DAN       0.1858
     33 H13        22.1509   17.0380   64.0879 H           1 DAN       0.2127
     34 H14        27.4672   19.4601   64.6261 H           1 DAN       0.2100
     35 H15        29.1840   19.1000   61.3343 H           1 DAN       0.2100
     36 H16        30.2036   21.2337   61.6246 H           1 DAN       0.2095
@<TRIPOS>BOND
     1     1    14  ar
     2     1    13  ar
     3     1     2   1
     4     2    16   1
     5     2     3   2
     6     3     4   1
     7     4    15   1
     8     4     5   1
     9     5    12   1
    10     5     6   1
    11     6    16   1
    12     6     7   1
    13     7    17   1
    14     7     8   1
    15     8    18   1
    16     8     9   1
    17     9    19   1
    18    12    10  am
    19    10    20   2
    20    10    11   1
    21     3    21   1
    22     4    22   1
    23     5    23   1
    24     6    24   1
    25     7    25   1
    26     8    26   1
    27     9    27   1
    28     9    28   1
    29    11    29   1
    30    11    30   1
    31    11    31   1
    32    12    32   1
    33    15    33   1
    34    17    34   1
    35    18    35   1
    36    19    36   1
@<TRIPOS>SUBSTRUCTURE
     1  DAN      1

