@<TRIPOS>MOLECULE
1f8b_ligand_007
    36    36
SMALL
GAST_HUCK
****
This file was generated by PARSER (from files_GN.cpp)

@<TRIPOS>ATOM
      1 C1         24.2451   20.0242   64.9103 C.2         1 DAN       0.0809
      2 C2         25.0163   19.0940   64.2626 C.2         1 DAN       0.1088
      3 C3         25.0199   17.7977   64.6334 C.2         1 DAN      -0.0276
      4 C4         25.7934   16.7827   63.9382 C.3         1 DAN       0.1003
      5 C5         26.3098   17.2239   62.5365 C.3         1 DAN       0.1064
      6 C6         26.7142   18.7366   62.5491 C.3         1 DAN       0.1321
      7 C7         28.1491   19.0383   63.1590 C.3         1 DAN       0.1154
      8 C8         29.0998   19.9263   62.2662 C.3         1 DAN       0.1068
      9 C9         29.4053   21.3541   62.7908 C.3         1 DAN       0.0727
     10 C10        24.1281   17.1496   61.3080 C.2         1 DAN       0.1734
     11 C11        23.4721   16.6924   60.1051 C.3         1 DAN       0.0257
     12 N5         25.4189   16.8842   61.4584 N.am        1 DAN      -0.2770
     13 O1A        22.9656   19.7747   65.3135 O.co2       1 DAN      -0.5623
     14 O1B        24.7174   21.2851   65.0855 O.co2       1 DAN      -0.5623
     15 O4         26.8908   16.4466   64.7844 O.3         1 DAN      -0.3807
     16 O6         25.6967   19.5422   63.1748 O.3         1 DAN      -0.3189
     17 O7         28.0165   19.5487   64.4838 O.3         1 DAN      -0.3861
     18 O8         30.3545   19.2606   62.0715 O.3         1 DAN      -0.3869
     19 O9         29.7485   21.3611   64.1746 O.3         1 DAN      -0.3924
     20 O10        23.4549   17.7334   62.1469 O.2         1 DAN      -0.3974
     21 H1         24.5242   17.5097   65.4530 H           1 DAN       0.0480
     22 H2         25.1747   15.8883   63.8278 H           1 DAN       0.0740
     23 H3         27.1977   16.6323   62.3023 H           1 DAN       0.0632
     24 H4         26.7226   19.0530   61.5046 H           1 DAN       0.0697
     25 H5         28.6555   18.0811   63.3022 H           1 DAN       0.0650
     26 H6         28.6868   20.0474   61.2686 H           1 DAN       0.0643
     27 H7         28.5391   22.0031   62.6281 H           1 DAN       0.0584
     28 H8         30.2493   21.7731   62.2329 H           1 DAN       0.0584
     29 H9         22.4107   16.9632   60.0882 H           1 DAN       0.0467
     30 H10        23.5540   15.6026   60.0332 H           1 DAN       0.0467
     31 H11        23.9589   17.1473   59.2370 H           1 DAN       0.0467
     32 H12        25.8133   16.3772   60.7298 H           1 DAN       0.1858
     33 H13        27.1815   15.5515   64.4882 H           1 DAN       0.2127
     34 H14        28.9224   19.5908   64.8376 H           1 DAN       0.2100
     35 H15        30.7827   19.7248   61.3234 H           1 DAN       0.2100
     36 H16        30.1534   22.2504   64.3290 H           1 DAN       0.2095
@<TRIPOS>BOND
     1     1    14  ar
     2     1    13  ar
     3     1     2   1
     4     2    16   1
     5     2     3   2
     6     3     4   1
     7     4    15   1
     8     4     5   1
     9     5    12   1
    10     5     6   1
    11     6    16   1
    12     6     7   1
    13     7    17   1
    14     7     8   1
    15     8    18   1
    16     8     9   1
    17     9    19   1
    18    12    10  am
    19    10    20   2
    20    10    11   1
    21     3    21   1
    22     4    22   1
    23     5    23   1
    24     6    24   1
    25     7    25   1
    26     8    26   1
    27     9    27   1
    28     9    28   1
    29    11    29   1
    30    11    30   1
    31    11    31   1
    32    12    32   1
    33    15    33   1
    34    17    34   1
    35    18    35   1
    36    19    36   1
@<TRIPOS>SUBSTRUCTURE
     1  DAN      1

