@<TRIPOS>MOLECULE
1f8b_ligand_081
    36    36
SMALL
GAST_HUCK
****
This file was generated by PARSER (from files_GN.cpp)

@<TRIPOS>ATOM
      1 C1         25.8757   19.9577   71.4461 C.2         1 DAN       0.0809
      2 C2         25.5227   18.8050   70.7578 C.2         1 DAN       0.1088
      3 C3         26.0585   18.4951   69.5559 C.2         1 DAN      -0.0276
      4 C4         25.6658   17.3182   68.7968 C.3         1 DAN       0.1003
      5 C5         24.8120   16.3027   69.6158 C.3         1 DAN       0.1064
      6 C6         23.8386   17.0629   70.5798 C.3         1 DAN       0.1321
      7 C7         22.5224   17.6859   69.9808 C.3         1 DAN       0.1154
      8 C8         22.6068   19.1377   69.4026 C.3         1 DAN       0.1068
      9 C9         21.5856   19.4568   68.2767 C.3         1 DAN       0.0727
     10 C10        26.1970   14.3014   70.1242 C.2         1 DAN       0.1734
     11 C11        27.1013   13.6843   71.0691 C.3         1 DAN       0.0257
     12 N5         25.7085   15.4997   70.4080 N.am        1 DAN      -0.2770
     13 O1A        26.4218   21.0398   70.8346 O.co2       1 DAN      -0.5623
     14 O1B        25.6426   20.0708   72.7779 O.co2       1 DAN      -0.5623
     15 O4         24.9584   17.7431   67.6339 O.3         1 DAN      -0.3807
     16 O6         24.6110   18.0037   71.3672 O.3         1 DAN      -0.3189
     17 O7         21.9418   16.7926   69.0309 O.3         1 DAN      -0.3861
     18 O8         22.4134   20.0800   70.4612 O.3         1 DAN      -0.3869
     19 O9         22.2188   19.5604   67.0032 O.3         1 DAN      -0.3924
     20 O10        25.9277   13.7178   69.0829 O.2         1 DAN      -0.3974
     21 H1         26.7103   19.1128   69.1273 H           1 DAN       0.0480
     22 H2         26.5734   16.8218   68.4417 H           1 DAN       0.0740
     23 H3         24.2468   15.6706   68.9266 H           1 DAN       0.0632
     24 H4         23.4911   16.3139   71.2974 H           1 DAN       0.0697
     25 H5         21.7915   17.7318   70.7942 H           1 DAN       0.0650
     26 H6         23.5961   19.3170   68.9938 H           1 DAN       0.0643
     27 H7         21.1024   20.4184   68.4659 H           1 DAN       0.0584
     28 H8         20.8070   18.6890   68.2299 H           1 DAN       0.0584
     29 H9         27.4597   12.7183   70.7121 H           1 DAN       0.0467
     30 H10        26.5934   13.5331   72.0233 H           1 DAN       0.0467
     31 H11        27.9648   14.3338   71.2278 H           1 DAN       0.0467
     32 H12        26.0066   15.8939   71.2446 H           1 DAN       0.1858
     33 H13        24.7843   16.9238   67.1270 H           1 DAN       0.2127
     34 H14        21.9359   15.9108   69.4658 H           1 DAN       0.2100
     35 H15        21.4844   19.9673   70.7531 H           1 DAN       0.2100
     36 H16        22.8429   18.8058   66.9587 H           1 DAN       0.2095
@<TRIPOS>BOND
     1     1    14  ar
     2     1    13  ar
     3     1     2   1
     4     2    16   1
     5     2     3   2
     6     3     4   1
     7     4    15   1
     8     4     5   1
     9     5    12   1
    10     5     6   1
    11     6    16   1
    12     6     7   1
    13     7    17   1
    14     7     8   1
    15     8    18   1
    16     8     9   1
    17     9    19   1
    18    12    10  am
    19    10    20   2
    20    10    11   1
    21     3    21   1
    22     4    22   1
    23     5    23   1
    24     6    24   1
    25     7    25   1
    26     8    26   1
    27     9    27   1
    28     9    28   1
    29    11    29   1
    30    11    30   1
    31    11    31   1
    32    12    32   1
    33    15    33   1
    34    17    34   1
    35    18    35   1
    36    19    36   1
@<TRIPOS>SUBSTRUCTURE
     1  DAN      1

