@<TRIPOS>MOLECULE
1f8b_ligand_076
    36    36
SMALL
GAST_HUCK
****
This file was generated by PARSER (from files_GN.cpp)

@<TRIPOS>ATOM
      1 C1         26.8823   13.5046   61.5775 C.2         1 DAN       0.0809
      2 C2         25.8392   14.1532   60.9600 C.2         1 DAN       0.1088
      3 C3         24.5543   13.9883   61.3302 C.2         1 DAN      -0.0276
      4 C4         23.5140   14.7601   60.6745 C.3         1 DAN       0.1003
      5 C5         23.9757   16.2431   60.4683 C.3         1 DAN       0.1064
      6 C6         25.4951   16.3114   60.0392 C.3         1 DAN       0.1321
      7 C7         25.7909   17.0664   58.6892 C.3         1 DAN       0.1154
      8 C8         27.1600   17.8396   58.7248 C.3         1 DAN       0.1068
      9 C9         27.8085   18.1920   57.3590 C.3         1 DAN       0.0727
     10 C10        23.6300   16.9992   62.8489 C.2         1 DAN       0.1734
     11 C11        23.3380   18.1379   63.7051 C.3         1 DAN       0.0257
     12 N5         23.6971   17.1774   61.5347 N.am        1 DAN      -0.2770
     13 O1A        28.1206   13.4741   61.0077 O.co2       1 DAN      -0.5623
     14 O1B        26.7329   12.8914   62.7819 O.co2       1 DAN      -0.5623
     15 O4         23.2258   14.1427   59.4109 O.3         1 DAN      -0.3807
     16 O6         26.1203   15.0029   59.9387 O.3         1 DAN      -0.3189
     17 O7         25.7481   16.1486   57.5890 O.3         1 DAN      -0.3861
     18 O8         26.9723   19.0591   59.4574 O.3         1 DAN      -0.3869
     19 O9         26.9734   18.9929   56.5334 O.3         1 DAN      -0.3924
     20 O10        23.8110   15.9109   63.3764 O.2         1 DAN      -0.3974
     21 H1         24.3127   13.3895   62.1039 H           1 DAN       0.0480
     22 H2         22.5925   14.7150   61.2599 H           1 DAN       0.0740
     23 H3         23.3471   16.6161   59.6545 H           1 DAN       0.0632
     24 H4         26.0331   16.8325   60.8417 H           1 DAN       0.0697
     25 H5         25.0086   17.8057   58.4931 H           1 DAN       0.0650
     26 H6         27.8963   17.2365   59.2712 H           1 DAN       0.0643
     27 H7         28.0494   17.2712   56.8174 H           1 DAN       0.0584
     28 H8         28.7467   18.7427   57.5371 H           1 DAN       0.0584
     29 H9         23.2958   17.8520   64.7584 H           1 DAN       0.0467
     30 H10        22.3662   18.5667   63.4302 H           1 DAN       0.0467
     31 H11        24.1196   18.8983   63.5885 H           1 DAN       0.0467
     32 H12        23.6213   18.0947   61.2365 H           1 DAN       0.1858
     33 H13        23.2350   13.1688   59.5720 H           1 DAN       0.2127
     34 H14        25.7985   16.6862   56.7764 H           1 DAN       0.2100
     35 H15        27.8451   19.5040   59.4715 H           1 DAN       0.2100
     36 H16        26.2356   18.4113   56.2785 H           1 DAN       0.2095
@<TRIPOS>BOND
     1     1    14  ar
     2     1    13  ar
     3     1     2   1
     4     2    16   1
     5     2     3   2
     6     3     4   1
     7     4    15   1
     8     4     5   1
     9     5    12   1
    10     5     6   1
    11     6    16   1
    12     6     7   1
    13     7    17   1
    14     7     8   1
    15     8    18   1
    16     8     9   1
    17     9    19   1
    18    12    10  am
    19    10    20   2
    20    10    11   1
    21     3    21   1
    22     4    22   1
    23     5    23   1
    24     6    24   1
    25     7    25   1
    26     8    26   1
    27     9    27   1
    28     9    28   1
    29    11    29   1
    30    11    30   1
    31    11    31   1
    32    12    32   1
    33    15    33   1
    34    17    34   1
    35    18    35   1
    36    19    36   1
@<TRIPOS>SUBSTRUCTURE
     1  DAN      1

