@<TRIPOS>MOLECULE
1f8c_ligand_082
    38    38
SMALL
GAST_HUCK
****
This file was generated by PARSER (from files_GN.cpp)

@<TRIPOS>ATOM
      1 C1         27.2021   14.2855   61.1750 C.2         1 MOL       0.0810
      2 O1A        27.0853   13.9238   59.8683 O.co2       1 MOL      -0.5623
      3 O1B        27.5330   13.3202   62.0816 O.co2       1 MOL      -0.5623
      4 C2         26.9352   15.5704   61.5670 C.2         1 MOL       0.1116
      5 C3         25.8466   15.8811   62.3102 C.2         1 MOL      -0.0085
      6 C4         25.5827   17.2141   62.8232 C.3         1 MOL       0.0210
      7 N4         24.3688   17.7875   62.2128 N.4         1 MOL       0.2321
      8 C5         26.8113   18.1692   62.6874 C.3         1 MOL       0.1228
      9 N5         27.7053   17.9300   63.7837 N.am        1 MOL      -0.2741
     10 C10        27.5957   18.3620   65.0300 C.2         1 MOL       0.1735
     11 O10        26.6580   19.0666   65.3827 O.2         1 MOL      -0.3974
     12 C11        28.6396   18.0277   65.9670 C.3         1 MOL       0.0257
     13 C6         27.5781   17.9087   61.3503 C.3         1 MOL       0.1349
     14 O6         27.8638   16.4984   61.2014 O.3         1 MOL      -0.3186
     15 C7         26.9357   18.4967   60.0541 C.3         1 MOL       0.1156
     16 O7         26.1582   17.4821   59.4233 O.3         1 MOL      -0.3861
     17 C8         27.9859   19.1170   59.0554 C.3         1 MOL       0.1068
     18 O8         27.6658   20.4904   58.8480 O.3         1 MOL      -0.3869
     19 C9         28.2125   18.3966   57.6893 C.3         1 MOL       0.0727
     20 O9         27.3592   18.9038   56.6580 O.3         1 MOL      -0.3924
     21 H1         25.1717   15.1728   62.5072 H           1 MOL       0.0510
     22 H2         25.3315   17.0902   63.8888 H           1 MOL       0.0996
     23 H3         23.5954   17.1237   62.2872 H           1 MOL       0.2008
     24 H4         24.5117   18.0222   61.2368 H           1 MOL       0.2008
     25 H5         24.0969   18.6495   62.6919 H           1 MOL       0.2008
     26 H6         26.4870   19.2016   62.7369 H           1 MOL       0.0664
     27 H7         28.4767   17.3618   63.6002 H           1 MOL       0.1859
     28 H8         28.4373   18.4542   66.9601 H           1 MOL       0.0467
     29 H9         29.5924   18.4169   65.6027 H           1 MOL       0.0467
     30 H10        28.7118   16.9485   66.0653 H           1 MOL       0.0467
     31 H11        28.5503   18.3882   61.4831 H           1 MOL       0.0698
     32 H12        26.2435   19.2838   60.3745 H           1 MOL       0.0650
     33 H13        25.3291   17.9365   59.1823 H           1 MOL       0.2100
     34 H14        28.9530   19.1464   59.5339 H           1 MOL       0.0643
     35 H15        27.2013   20.5459   57.9637 H           1 MOL       0.2100
     36 H16        28.0325   17.3194   57.8299 H           1 MOL       0.0584
     37 H17        29.2411   18.5436   57.3627 H           1 MOL       0.0584
     38 H18        26.9931   18.0985   56.1909 H           1 MOL       0.2095
@<TRIPOS>BOND
     1     4     1   1
     2     1     3  ar
     3     1     2  ar
     4     4    14   1
     5     4     5   2
     6     5     6   1
     7     6     8   1
     8     6     7   1
     9     8    13   1
    10     8     9   1
    11     9    10  am
    12    10    12   1
    13    10    11   2
    14    13    15   1
    15    13    14   1
    16    15    17   1
    17    15    16   1
    18    17    19   1
    19    17    18   1
    20    19    20   1
    21     5    21   1
    22     6    22   1
    23     7    23   1
    24     7    24   1
    25     7    25   1
    26     8    26   1
    27     9    27   1
    28    12    28   1
    29    12    29   1
    30    12    30   1
    31    13    31   1
    32    15    32   1
    33    16    33   1
    34    17    34   1
    35    18    35   1
    36    19    36   1
    37    19    37   1
    38    20    38   1
@<TRIPOS>SUBSTRUCTURE
     1  MOL      1

