@<TRIPOS>MOLECULE
1f8c_ligand_002
    38    38
SMALL
GAST_HUCK
****
This file was generated by PARSER (from files_GN.cpp)

@<TRIPOS>ATOM
      1 C1         23.8571   19.8987   64.3869 C.2         1 MOL       0.0810
      2 O1A        22.6221   20.0016   64.9406 O.co2       1 MOL      -0.5623
      3 O1B        24.6894   20.9541   64.5397 O.co2       1 MOL      -0.5623
      4 C2         24.2757   18.7761   63.6961 C.2         1 MOL       0.1116
      5 C3         23.4218   17.8036   63.3051 C.2         1 MOL      -0.0085
      6 C4         23.8488   16.6049   62.5941 C.3         1 MOL       0.0210
      7 N4         23.5289   15.4373   63.4261 N.4         1 MOL       0.2321
      8 C5         25.3537   16.5948   62.1753 C.3         1 MOL       0.1228
      9 N5         25.4717   17.1730   60.8600 N.am        1 MOL      -0.2741
     10 C10        26.1597   16.7012   59.8289 C.2         1 MOL       0.1735
     11 O10        26.7950   15.6546   59.8893 O.2         1 MOL      -0.3974
     12 C11        26.1864   17.4720   58.6078 C.3         1 MOL       0.0257
     13 C6         26.2239   17.4427   63.1629 C.3         1 MOL       0.1349
     14 O6         25.5933   18.7253   63.3717 O.3         1 MOL      -0.3186
     15 C7         26.6320   16.7371   64.5141 C.3         1 MOL       0.1156
     16 O7         25.8230   17.1884   65.5984 O.3         1 MOL      -0.3861
     17 C8         28.1353   16.9445   64.8855 C.3         1 MOL       0.1068
     18 O8         28.9730   16.0950   64.0883 O.3         1 MOL      -0.3869
     19 C9         28.4907   16.6422   66.3680 C.3         1 MOL       0.0727
     20 O9         28.4035   15.2499   66.6460 O.3         1 MOL      -0.3924
     21 H1         22.4546   17.8735   63.5324 H           1 MOL       0.0510
     22 H2         23.2196   16.5128   61.7015 H           1 MOL       0.0996
     23 H3         22.5555   15.4935   63.7240 H           1 MOL       0.2008
     24 H4         24.1391   15.4235   64.2402 H           1 MOL       0.2008
     25 H5         23.6695   14.5833   62.8869 H           1 MOL       0.2008
     26 H6         25.7257   15.5673   62.1666 H           1 MOL       0.0664
     27 H7         25.0163   18.0182   60.7199 H           1 MOL       0.1859
     28 H8         26.8068   16.9942   57.8420 H           1 MOL       0.0467
     29 H9         26.5934   18.4648   58.8091 H           1 MOL       0.0467
     30 H10        25.1738   17.5796   58.2144 H           1 MOL       0.0467
     31 H11        27.1477   17.6785   62.6275 H           1 MOL       0.0698
     32 H12        26.4720   15.6578   64.4215 H           1 MOL       0.0650
     33 H13        24.9260   16.8265   65.4365 H           1 MOL       0.2100
     34 H14        28.4155   17.9865   64.6827 H           1 MOL       0.0643
     35 H15        28.8810   16.4084   63.1597 H           1 MOL       0.2100
     36 H16        27.8276   17.1833   67.0443 H           1 MOL       0.0584
     37 H17        29.5194   16.9603   66.5608 H           1 MOL       0.0584
     38 H18        27.4883   15.0997   66.9617 H           1 MOL       0.2095
@<TRIPOS>BOND
     1     4     1   1
     2     1     3  ar
     3     1     2  ar
     4     4    14   1
     5     4     5   2
     6     5     6   1
     7     6     8   1
     8     6     7   1
     9     8    13   1
    10     8     9   1
    11     9    10  am
    12    10    12   1
    13    10    11   2
    14    13    15   1
    15    13    14   1
    16    15    17   1
    17    15    16   1
    18    17    19   1
    19    17    18   1
    20    19    20   1
    21     5    21   1
    22     6    22   1
    23     7    23   1
    24     7    24   1
    25     7    25   1
    26     8    26   1
    27     9    27   1
    28    12    28   1
    29    12    29   1
    30    12    30   1
    31    13    31   1
    32    15    32   1
    33    16    33   1
    34    17    34   1
    35    18    35   1
    36    19    36   1
    37    19    37   1
    38    20    38   1
@<TRIPOS>SUBSTRUCTURE
     1  MOL      1

