@<TRIPOS>MOLECULE
1f8c_ligand_068
    38    38
SMALL
GAST_HUCK
****
This file was generated by PARSER (from files_GN.cpp)

@<TRIPOS>ATOM
      1 C1         31.0655   15.7724   65.4495 C.2         1 MOL       0.0810
      2 O1A        30.2689   15.0961   66.3059 O.co2       1 MOL      -0.5623
      3 O1B        32.2977   16.1114   65.8976 O.co2       1 MOL      -0.5623
      4 C2         30.5827   16.2278   64.2356 C.2         1 MOL       0.1116
      5 C3         31.4061   16.6548   63.2505 C.2         1 MOL      -0.0085
      6 C4         30.9080   17.1823   61.9807 C.3         1 MOL       0.0210
      7 N4         31.3480   18.5848   61.9033 N.4         1 MOL       0.2321
      8 C5         29.3639   17.0128   61.7775 C.3         1 MOL       0.1228
      9 N5         29.1016   15.7149   61.1972 N.am        1 MOL      -0.2741
     10 C10        28.2534   15.4326   60.2158 C.2         1 MOL       0.1735
     11 O10        27.5874   16.2980   59.6695 O.2         1 MOL      -0.3974
     12 C11        28.0997   14.0546   59.8032 C.3         1 MOL       0.0257
     13 C6         28.6000   17.0771   63.1417 C.3         1 MOL       0.1349
     14 O6         29.2474   16.1489   64.0465 O.3         1 MOL      -0.3186
     15 C7         28.3880   18.4886   63.7962 C.3         1 MOL       0.1156
     16 O7         27.9138   18.2782   65.1329 O.3         1 MOL      -0.3861
     17 C8         27.3684   19.4538   63.0988 C.3         1 MOL       0.1068
     18 O8         26.2530   18.7562   62.5430 O.3         1 MOL      -0.3869
     19 C9         27.9623   20.4136   62.0201 C.3         1 MOL       0.0727
     20 O9         28.6936   21.4762   62.6276 O.3         1 MOL      -0.3924
     21 H1         32.3955   16.6566   63.3881 H           1 MOL       0.0510
     22 H2         31.4284   16.6571   61.1685 H           1 MOL       0.0996
     23 H3         32.3662   18.6021   61.8336 H           1 MOL       0.2008
     24 H4         31.0669   19.0801   62.7476 H           1 MOL       0.2008
     25 H5         30.9577   19.0618   61.0896 H           1 MOL       0.2008
     26 H6         29.0072   17.7889   61.1046 H           1 MOL       0.0664
     27 H7         29.5516   14.9625   61.6151 H           1 MOL       0.1859
     28 H8         27.3094   13.9507   59.0570 H           1 MOL       0.0467
     29 H9         27.8416   13.4380   60.6645 H           1 MOL       0.0467
     30 H10        29.0352   13.6956   59.3723 H           1 MOL       0.0467
     31 H11        27.6007   16.6595   62.9912 H           1 MOL       0.0698
     32 H12        29.3519   18.9884   63.8932 H           1 MOL       0.0650
     33 H13        28.6806   17.9228   65.6276 H           1 MOL       0.2100
     34 H14        26.9500   20.1115   63.8663 H           1 MOL       0.0643
     35 H15        26.5911   18.3389   61.7223 H           1 MOL       0.2100
     36 H16        27.1387   20.8515   61.4429 H           1 MOL       0.0584
     37 H17        28.6139   19.8758   61.3301 H           1 MOL       0.0584
     38 H18        29.0306   21.9780   61.8559 H           1 MOL       0.2095
@<TRIPOS>BOND
     1     4     1   1
     2     1     3  ar
     3     1     2  ar
     4     4    14   1
     5     4     5   2
     6     5     6   1
     7     6     8   1
     8     6     7   1
     9     8    13   1
    10     8     9   1
    11     9    10  am
    12    10    12   1
    13    10    11   2
    14    13    15   1
    15    13    14   1
    16    15    17   1
    17    15    16   1
    18    17    19   1
    19    17    18   1
    20    19    20   1
    21     5    21   1
    22     6    22   1
    23     7    23   1
    24     7    24   1
    25     7    25   1
    26     8    26   1
    27     9    27   1
    28    12    28   1
    29    12    29   1
    30    12    30   1
    31    13    31   1
    32    15    32   1
    33    16    33   1
    34    17    34   1
    35    18    35   1
    36    19    36   1
    37    19    37   1
    38    20    38   1
@<TRIPOS>SUBSTRUCTURE
     1  MOL      1

