@<TRIPOS>MOLECULE
1f8c_ligand_074
    38    38
SMALL
GAST_HUCK
****
This file was generated by PARSER (from files_GN.cpp)

@<TRIPOS>ATOM
      1 C1         20.6372   20.0785   69.2864 C.2         1 MOL       0.0810
      2 O1A        19.4954   19.4442   68.9318 O.co2       1 MOL      -0.5623
      3 O1B        20.5125   21.1224   70.1351 O.co2       1 MOL      -0.5623
      4 C2         21.8696   19.7531   68.7417 C.2         1 MOL       0.1116
      5 C3         22.1306   18.5506   68.1833 C.2         1 MOL      -0.0085
      6 C4         23.3867   18.2608   67.5077 C.3         1 MOL       0.0210
      7 N4         23.9644   17.0678   68.1540 N.4         1 MOL       0.2321
      8 C5         24.4167   19.4446   67.4732 C.3         1 MOL       0.1228
      9 N5         25.3437   19.2510   66.3851 N.am        1 MOL      -0.2741
     10 C10        25.5672   19.9617   65.2843 C.2         1 MOL       0.1735
     11 O10        24.9277   20.9688   64.9984 O.2         1 MOL      -0.3974
     12 C11        26.6274   19.5195   64.4029 C.3         1 MOL       0.0257
     13 C6         23.6842   20.8277   67.6475 C.3         1 MOL       0.1349
     14 O6         22.8368   20.6966   68.8170 O.3         1 MOL      -0.3186
     15 C7         24.5915   22.0969   67.7824 C.3         1 MOL       0.1156
     16 O7         25.8420   21.7599   68.3898 O.3         1 MOL      -0.3861
     17 C8         23.9127   23.3485   68.4661 C.3         1 MOL       0.1068
     18 O8         24.0547   24.4987   67.6340 O.3         1 MOL      -0.3869
     19 C9         24.4367   23.7058   69.8851 C.3         1 MOL       0.0727
     20 O9         24.4043   25.1091   70.1265 O.3         1 MOL      -0.3924
     21 H1         21.4271   17.8514   68.1645 H           1 MOL       0.0510
     22 H2         23.1346   17.9797   66.4801 H           1 MOL       0.0996
     23 H3         23.2699   16.3195   68.1772 H           1 MOL       0.2008
     24 H4         24.2359   17.2999   69.1115 H           1 MOL       0.2008
     25 H5         24.7822   16.7339   67.6440 H           1 MOL       0.2008
     26 H6         25.0321   19.3422   68.3722 H           1 MOL       0.0664
     27 H7         25.8898   18.4499   66.4680 H           1 MOL       0.1859
     28 H8         26.8029   20.2375   63.5996 H           1 MOL       0.0467
     29 H9         26.3637   18.5586   63.9579 H           1 MOL       0.0467
     30 H10        27.5539   19.4086   64.9723 H           1 MOL       0.0467
     31 H11        23.0340   20.9921   66.7840 H           1 MOL       0.0698
     32 H12        24.8587   22.3854   66.7624 H           1 MOL       0.0650
     33 H13        25.6125   21.3907   69.2687 H           1 MOL       0.2100
     34 H14        22.8348   23.1845   68.5408 H           1 MOL       0.0643
     35 H15        25.0137   24.6926   67.6280 H           1 MOL       0.2100
     36 H16        25.4787   23.4014   69.9842 H           1 MOL       0.0584
     37 H17        23.8456   23.1927   70.6461 H           1 MOL       0.0584
     38 H18        23.4764   25.3240   70.3640 H           1 MOL       0.2095
@<TRIPOS>BOND
     1     4     1   1
     2     1     3  ar
     3     1     2  ar
     4     4    14   1
     5     4     5   2
     6     5     6   1
     7     6     8   1
     8     6     7   1
     9     8    13   1
    10     8     9   1
    11     9    10  am
    12    10    12   1
    13    10    11   2
    14    13    15   1
    15    13    14   1
    16    15    17   1
    17    15    16   1
    18    17    19   1
    19    17    18   1
    20    19    20   1
    21     5    21   1
    22     6    22   1
    23     7    23   1
    24     7    24   1
    25     7    25   1
    26     8    26   1
    27     9    27   1
    28    12    28   1
    29    12    29   1
    30    12    30   1
    31    13    31   1
    32    15    32   1
    33    16    33   1
    34    17    34   1
    35    18    35   1
    36    19    36   1
    37    19    37   1
    38    20    38   1
@<TRIPOS>SUBSTRUCTURE
     1  MOL      1

