@<TRIPOS>MOLECULE
1f8c_ligand_023
    38    38
SMALL
GAST_HUCK
****
This file was generated by PARSER (from files_GN.cpp)

@<TRIPOS>ATOM
      1 C1         28.6839   18.8463   57.4075 C.2         1 MOL       0.0810
      2 O1A        30.0098   19.1439   57.2779 O.co2       1 MOL      -0.5623
      3 O1B        27.8817   19.0762   56.3368 O.co2       1 MOL      -0.5623
      4 C2         28.1844   18.4033   58.6167 C.2         1 MOL       0.1116
      5 C3         27.3730   17.3244   58.7091 C.2         1 MOL      -0.0085
      6 C4         26.9135   16.8108   59.9916 C.3         1 MOL       0.0210
      7 N4         25.4503   16.7657   59.8833 N.4         1 MOL       0.2321
      8 C5         27.3558   17.6401   61.2506 C.3         1 MOL       0.1228
      9 N5         27.5941   16.8678   62.4329 N.am        1 MOL      -0.2741
     10 C10        26.7225   16.1667   63.1660 C.2         1 MOL       0.1735
     11 O10        25.6076   15.8498   62.7088 O.2         1 MOL      -0.3974
     12 C11        27.1152   15.7199   64.4743 C.3         1 MOL       0.0257
     13 C6         28.6719   18.4348   60.9376 C.3         1 MOL       0.1349
     14 O6         28.5187   19.1491   59.6944 O.3         1 MOL      -0.3186
     15 C7         29.1735   19.4744   62.0049 C.3         1 MOL       0.1156
     16 O7         29.8491   18.8334   63.0977 O.3         1 MOL      -0.3861
     17 C8         28.1002   20.4930   62.5220 C.3         1 MOL       0.1068
     18 O8         28.7393   21.7427   62.8007 O.3         1 MOL      -0.3869
     19 C9         27.2758   20.0314   63.7733 C.3         1 MOL       0.0727
     20 O9         27.6231   20.7472   64.9599 O.3         1 MOL      -0.3924
     21 H1         27.1725   16.7999   57.8822 H           1 MOL       0.0510
     22 H2         27.2885   15.7906   60.0692 H           1 MOL       0.0996
     23 H3         25.1681   16.2276   59.0619 H           1 MOL       0.2008
     24 H4         25.0728   17.7113   59.7809 H           1 MOL       0.2008
     25 H5         25.0430   16.3280   60.7127 H           1 MOL       0.2008
     26 H6         26.5750   18.3756   61.4641 H           1 MOL       0.0664
     27 H7         28.4768   16.9942   62.8514 H           1 MOL       0.1859
     28 H8         26.7735   14.6991   64.6493 H           1 MOL       0.0467
     29 H9         26.6528   16.3759   65.2140 H           1 MOL       0.0467
     30 H10        28.2071   15.7448   64.6194 H           1 MOL       0.0467
     31 H11        29.4928   17.7103   60.8006 H           1 MOL       0.0698
     32 H12        29.9571   20.0532   61.4892 H           1 MOL       0.0650
     33 H13        30.6701   18.4669   62.7082 H           1 MOL       0.2100
     34 H14        27.4015   20.7035   61.7086 H           1 MOL       0.0643
     35 H15        29.0061   22.0902   61.9267 H           1 MOL       0.2100
     36 H16        27.4229   18.9666   63.9733 H           1 MOL       0.0584
     37 H17        26.2085   20.1952   63.5843 H           1 MOL       0.0584
     38 H18        28.5410   20.4857   65.1589 H           1 MOL       0.2095
@<TRIPOS>BOND
     1     4     1   1
     2     1     3  ar
     3     1     2  ar
     4     4    14   1
     5     4     5   2
     6     5     6   1
     7     6     8   1
     8     6     7   1
     9     8    13   1
    10     8     9   1
    11     9    10  am
    12    10    12   1
    13    10    11   2
    14    13    15   1
    15    13    14   1
    16    15    17   1
    17    15    16   1
    18    17    19   1
    19    17    18   1
    20    19    20   1
    21     5    21   1
    22     6    22   1
    23     7    23   1
    24     7    24   1
    25     7    25   1
    26     8    26   1
    27     9    27   1
    28    12    28   1
    29    12    29   1
    30    12    30   1
    31    13    31   1
    32    15    32   1
    33    16    33   1
    34    17    34   1
    35    18    35   1
    36    19    36   1
    37    19    37   1
    38    20    38   1
@<TRIPOS>SUBSTRUCTURE
     1  MOL      1

