@<TRIPOS>MOLECULE
1f8c_ligand_066
    38    38
SMALL
GAST_HUCK
****
This file was generated by PARSER (from files_GN.cpp)

@<TRIPOS>ATOM
      1 C1         24.0964   20.6508   66.4744 C.2         1 MOL       0.0810
      2 O1A        23.7272   21.5762   67.3850 O.co2       1 MOL      -0.5623
      3 O1B        23.1267   19.8121   66.0309 O.co2       1 MOL      -0.5623
      4 C2         25.4041   20.2219   66.5175 C.2         1 MOL       0.1116
      5 C3         25.8470   19.4413   67.5199 C.2         1 MOL      -0.0085
      6 C4         27.2454   19.0476   67.6443 C.3         1 MOL       0.0210
      7 N4         27.8020   19.6666   68.8599 N.4         1 MOL       0.2321
      8 C5         28.1038   19.3781   66.3772 C.3         1 MOL       0.1228
      9 N5         27.8753   18.3204   65.4271 N.am        1 MOL      -0.2741
     10 C10        28.7429   17.4243   64.9798 C.2         1 MOL       0.1735
     11 O10        29.9228   17.4431   65.3083 O.2         1 MOL      -0.3974
     12 C11        28.2631   16.3715   64.1171 C.3         1 MOL       0.0257
     13 C6         27.6434   20.7251   65.7373 C.3         1 MOL       0.1349
     14 O6         26.2079   20.6602   65.5064 O.3         1 MOL      -0.3186
     15 C7         27.9490   22.0689   66.4863 C.3         1 MOL       0.1156
     16 O7         27.8230   23.1223   65.5230 O.3         1 MOL      -0.3861
     17 C8         29.3116   22.2251   67.2350 C.3         1 MOL       0.1068
     18 O8         29.1857   23.2091   68.2726 O.3         1 MOL      -0.3869
     19 C9         30.5220   22.5919   66.3315 C.3         1 MOL       0.0727
     20 O9         31.6966   22.7734   67.1286 O.3         1 MOL      -0.3924
     21 H1         25.2188   19.1731   68.2483 H           1 MOL       0.0510
     22 H2         27.2732   17.9683   67.8276 H           1 MOL       0.0996
     23 H3         27.2877   19.3337   69.6837 H           1 MOL       0.2008
     24 H4         27.7229   20.6839   68.8062 H           1 MOL       0.2008
     25 H5         28.7856   19.4044   68.9558 H           1 MOL       0.2008
     26 H6         29.1582   19.4321   66.6484 H           1 MOL       0.0664
     27 H7         26.9581   18.2148   65.1164 H           1 MOL       0.1859
     28 H8         29.0677   15.6861   63.8333 H           1 MOL       0.0467
     29 H9         27.8367   16.8051   63.2097 H           1 MOL       0.0467
     30 H10        27.4894   15.7991   64.6345 H           1 MOL       0.0467
     31 H11        28.1134   20.7959   64.7553 H           1 MOL       0.0698
     32 H12        27.1602   22.2327   67.2265 H           1 MOL       0.0650
     33 H13        27.6589   23.9280   66.0420 H           1 MOL       0.2100
     34 H14        29.5394   21.2940   67.7557 H           1 MOL       0.0643
     35 H15        29.5817   24.0546   67.9306 H           1 MOL       0.2100
     36 H16        30.3165   23.5295   65.7995 H           1 MOL       0.0584
     37 H17        30.7061   21.7905   65.6041 H           1 MOL       0.0584
     38 H18        32.2841   23.3393   66.5753 H           1 MOL       0.2095
@<TRIPOS>BOND
     1     4     1   1
     2     1     3  ar
     3     1     2  ar
     4     4    14   1
     5     4     5   2
     6     5     6   1
     7     6     8   1
     8     6     7   1
     9     8    13   1
    10     8     9   1
    11     9    10  am
    12    10    12   1
    13    10    11   2
    14    13    15   1
    15    13    14   1
    16    15    17   1
    17    15    16   1
    18    17    19   1
    19    17    18   1
    20    19    20   1
    21     5    21   1
    22     6    22   1
    23     7    23   1
    24     7    24   1
    25     7    25   1
    26     8    26   1
    27     9    27   1
    28    12    28   1
    29    12    29   1
    30    12    30   1
    31    13    31   1
    32    15    32   1
    33    16    33   1
    34    17    34   1
    35    18    35   1
    36    19    36   1
    37    19    37   1
    38    20    38   1
@<TRIPOS>SUBSTRUCTURE
     1  MOL      1

