@<TRIPOS>MOLECULE
1f8c_ligand_070
    38    38
SMALL
GAST_HUCK
****
This file was generated by PARSER (from files_GN.cpp)

@<TRIPOS>ATOM
      1 C1         31.2563   17.2839   61.7913 C.2         1 MOL       0.0810
      2 O1A        31.8153   16.0519   61.7207 O.co2       1 MOL      -0.5623
      3 O1B        32.1040   18.3278   61.9605 O.co2       1 MOL      -0.5623
      4 C2         29.8800   17.4410   61.6549 C.2         1 MOL       0.1116
      5 C3         29.3039   18.6129   61.3100 C.2         1 MOL      -0.0085
      6 C4         27.8652   18.7540   61.1229 C.3         1 MOL       0.0210
      7 N4         27.4202   20.0073   61.7560 N.4         1 MOL       0.2321
      8 C5         27.0314   17.5379   61.6422 C.3         1 MOL       0.1228
      9 N5         25.7391   17.4964   61.0103 N.am        1 MOL      -0.2741
     10 C10        24.5945   17.1155   61.5619 C.2         1 MOL       0.1735
     11 O10        24.5246   16.7569   62.7300 O.2         1 MOL      -0.3974
     12 C11        23.4037   17.0573   60.7412 C.3         1 MOL       0.0257
     13 C6         27.8194   16.2192   61.3688 C.3         1 MOL       0.1349
     14 O6         29.1371   16.3569   61.9539 O.3         1 MOL      -0.3186
     15 C7         27.1558   14.9321   61.9654 C.3         1 MOL       0.1156
     16 O7         28.1437   13.9874   62.3819 O.3         1 MOL      -0.3861
     17 C8         26.1406   14.1816   61.0469 C.3         1 MOL       0.1068
     18 O8         25.7288   13.0137   61.7648 O.3         1 MOL      -0.3869
     19 C9         26.6797   13.7470   59.6527 C.3         1 MOL       0.0727
     20 O9         26.6961   14.7973   58.6932 O.3         1 MOL      -0.3924
     21 H1         29.8783   19.3897   61.0745 H           1 MOL       0.0510
     22 H2         27.7031   18.8652   60.0473 H           1 MOL       0.0996
     23 H3         27.9551   20.7902   61.3691 H           1 MOL       0.2008
     24 H4         27.5678   19.9628   62.7654 H           1 MOL       0.2008
     25 H5         26.4263   20.1537   61.5682 H           1 MOL       0.2008
     26 H6         26.9382   17.6407   62.7292 H           1 MOL       0.0664
     27 H7         25.7132   17.7095   60.0630 H           1 MOL       0.1859
     28 H8         22.5500   16.6664   61.3014 H           1 MOL       0.0467
     29 H9         23.5679   16.4139   59.8725 H           1 MOL       0.0467
     30 H10        23.1522   18.0564   60.3890 H           1 MOL       0.0467
     31 H11        27.9504   16.0964   60.2919 H           1 MOL       0.0698
     32 H12        26.6373   15.2131   62.8882 H           1 MOL       0.0650
     33 H13        28.7137   13.8405   61.6012 H           1 MOL       0.2100
     34 H14        25.2451   14.7857   60.8990 H           1 MOL       0.0643
     35 H15        25.0748   12.5645   61.1898 H           1 MOL       0.2100
     36 H16        26.0424   12.9599   59.2475 H           1 MOL       0.0584
     37 H17        27.6875   13.3497   59.7408 H           1 MOL       0.0584
     38 H18        25.7632   15.0885   58.6069 H           1 MOL       0.2095
@<TRIPOS>BOND
     1     4     1   1
     2     1     3  ar
     3     1     2  ar
     4     4    14   1
     5     4     5   2
     6     5     6   1
     7     6     8   1
     8     6     7   1
     9     8    13   1
    10     8     9   1
    11     9    10  am
    12    10    12   1
    13    10    11   2
    14    13    15   1
    15    13    14   1
    16    15    17   1
    17    15    16   1
    18    17    19   1
    19    17    18   1
    20    19    20   1
    21     5    21   1
    22     6    22   1
    23     7    23   1
    24     7    24   1
    25     7    25   1
    26     8    26   1
    27     9    27   1
    28    12    28   1
    29    12    29   1
    30    12    30   1
    31    13    31   1
    32    15    32   1
    33    16    33   1
    34    17    34   1
    35    18    35   1
    36    19    36   1
    37    19    37   1
    38    20    38   1
@<TRIPOS>SUBSTRUCTURE
     1  MOL      1

