@<TRIPOS>MOLECULE
1f8c_ligand_018
    38    38
SMALL
GAST_HUCK
****
This file was generated by PARSER (from files_GN.cpp)

@<TRIPOS>ATOM
      1 C1         28.4350   19.0924   57.8595 C.2         1 MOL       0.0810
      2 O1A        29.7614   19.2260   57.6277 O.co2       1 MOL      -0.5623
      3 O1B        27.5908   19.1948   56.8049 O.co2       1 MOL      -0.5623
      4 C2         27.9632   18.9180   59.1387 C.2         1 MOL       0.1116
      5 C3         27.3505   19.9089   59.8135 C.2         1 MOL      -0.0085
      6 C4         26.9718   19.7315   61.1995 C.3         1 MOL       0.0210
      7 N4         28.0469   20.3217   62.0139 N.4         1 MOL       0.2321
      8 C5         26.7009   18.2365   61.6193 C.3         1 MOL       0.1228
      9 N5         25.3089   18.0484   61.9431 N.am        1 MOL      -0.2741
     10 C10        24.7893   17.3824   62.9662 C.2         1 MOL       0.1735
     11 O10        25.4992   16.8357   63.8051 O.2         1 MOL      -0.3974
     12 C11        23.3537   17.2574   63.0595 C.3         1 MOL       0.0257
     13 C6         27.0755   17.2259   60.4777 C.3         1 MOL       0.1349
     14 O6         28.2058   17.7225   59.7183 O.3         1 MOL      -0.3186
     15 C7         27.3898   15.7838   60.9968 C.3         1 MOL       0.1156
     16 O7         28.6690   15.7727   61.6465 O.3         1 MOL      -0.3861
     17 C8         27.3127   14.6420   59.9192 C.3         1 MOL       0.1068
     18 O8         26.8700   15.1029   58.6506 O.3         1 MOL      -0.3869
     19 C9         26.4200   13.4308   60.3237 C.3         1 MOL       0.0727
     20 O9         25.1803   13.8429   60.9299 O.3         1 MOL      -0.3924
     21 H1         27.2136   20.7964   59.3824 H           1 MOL       0.0510
     22 H2         26.0845   20.3307   61.3851 H           1 MOL       0.0996
     23 H3         28.3688   21.1922   61.5787 H           1 MOL       0.2008
     24 H4         28.8377   19.6708   62.0682 H           1 MOL       0.2008
     25 H5         27.7043   20.5137   62.9558 H           1 MOL       0.2008
     26 H6         27.3260   18.0031   62.4925 H           1 MOL       0.0664
     27 H7         24.6821   18.4096   61.2963 H           1 MOL       0.1859
     28 H8         23.0626   16.6025   63.8826 H           1 MOL       0.0467
     29 H9         22.9493   16.8438   62.1326 H           1 MOL       0.0467
     30 H10        22.9161   18.2405   63.2320 H           1 MOL       0.0467
     31 H11        26.2091   17.1464   59.7974 H           1 MOL       0.0698
     32 H12        26.6765   15.5660   61.7942 H           1 MOL       0.0650
     33 H13        29.3230   15.9416   60.9311 H           1 MOL       0.2100
     34 H14        28.3169   14.2511   59.7596 H           1 MOL       0.0643
     35 H15        25.8963   15.1012   58.6681 H           1 MOL       0.2100
     36 H16        26.9481   12.7771   61.0320 H           1 MOL       0.0584
     37 H17        26.1772   12.8368   59.4308 H           1 MOL       0.0584
     38 H18        24.5574   13.0937   60.7625 H           1 MOL       0.2095
@<TRIPOS>BOND
     1     4     1   1
     2     1     3  ar
     3     1     2  ar
     4     4    14   1
     5     4     5   2
     6     5     6   1
     7     6     8   1
     8     6     7   1
     9     8    13   1
    10     8     9   1
    11     9    10  am
    12    10    12   1
    13    10    11   2
    14    13    15   1
    15    13    14   1
    16    15    17   1
    17    15    16   1
    18    17    19   1
    19    17    18   1
    20    19    20   1
    21     5    21   1
    22     6    22   1
    23     7    23   1
    24     7    24   1
    25     7    25   1
    26     8    26   1
    27     9    27   1
    28    12    28   1
    29    12    29   1
    30    12    30   1
    31    13    31   1
    32    15    32   1
    33    16    33   1
    34    17    34   1
    35    18    35   1
    36    19    36   1
    37    19    37   1
    38    20    38   1
@<TRIPOS>SUBSTRUCTURE
     1  MOL      1

