@<TRIPOS>MOLECULE
1f8c_ligand_051
    38    38
SMALL
GAST_HUCK
****
This file was generated by PARSER (from files_GN.cpp)

@<TRIPOS>ATOM
      1 C1         29.1429   17.1567   65.2786 C.2         1 MOL       0.0810
      2 O1A        30.2078   17.9937   65.2391 O.co2       1 MOL      -0.5623
      3 O1B        29.3844   15.8839   65.6633 O.co2       1 MOL      -0.5623
      4 C2         27.8797   17.6057   64.9319 C.2         1 MOL       0.1116
      5 C3         26.7768   16.8352   65.0785 C.2         1 MOL      -0.0085
      6 C4         25.4299   17.3032   64.7886 C.3         1 MOL       0.0210
      7 N4         24.8218   16.4514   63.7499 N.4         1 MOL       0.2321
      8 C5         25.3467   18.8176   64.4033 C.3         1 MOL       0.1228
      9 N5         25.1567   19.6141   65.5928 N.am        1 MOL      -0.2741
     10 C10        24.0027   20.0207   66.1014 C.2         1 MOL       0.1735
     11 O10        22.9305   19.6834   65.6167 O.2         1 MOL      -0.3974
     12 C11        24.0192   20.8583   67.2784 C.3         1 MOL       0.0257
     13 C6         26.6640   19.3043   63.7146 C.3         1 MOL       0.1349
     14 O6         27.8043   18.8846   64.4981 O.3         1 MOL      -0.3186
     15 C7         26.8005   18.9586   62.1919 C.3         1 MOL       0.1156
     16 O7         27.1067   17.5754   62.0194 O.3         1 MOL      -0.3861
     17 C8         27.8806   19.7716   61.4125 C.3         1 MOL       0.1068
     18 O8         27.9625   21.1099   61.9013 O.3         1 MOL      -0.3869
     19 C9         27.5992   19.8189   59.8771 C.3         1 MOL       0.0727
     20 O9         28.7578   19.4729   59.1219 O.3         1 MOL      -0.3924
     21 H1         26.8716   15.8937   65.3847 H           1 MOL       0.0510
     22 H2         24.8280   17.1365   65.6858 H           1 MOL       0.0996
     23 H3         24.8268   15.4777   64.0554 H           1 MOL       0.2008
     24 H4         25.3436   16.5267   62.8790 H           1 MOL       0.2008
     25 H5         23.8558   16.7436   63.5897 H           1 MOL       0.2008
     26 H6         24.5103   18.9883   63.7165 H           1 MOL       0.0664
     27 H7         25.9595   19.8936   66.0631 H           1 MOL       0.1859
     28 H8         23.0090   21.1071   67.6102 H           1 MOL       0.0467
     29 H9         24.5468   21.7866   67.0566 H           1 MOL       0.0467
     30 H10        24.5314   20.3450   68.0937 H           1 MOL       0.0467
     31 H11        26.6517   20.3948   63.7737 H           1 MOL       0.0698
     32 H12        25.8280   19.1511   61.7331 H           1 MOL       0.0650
     33 H13        26.9648   17.3824   61.0690 H           1 MOL       0.2100
     34 H14        28.8561   19.3079   61.5891 H           1 MOL       0.0643
     35 H15        28.7148   21.5184   61.4271 H           1 MOL       0.2100
     36 H16        27.2677   20.8178   59.5798 H           1 MOL       0.0584
     37 H17        26.8118   19.1217   59.5880 H           1 MOL       0.0584
     38 H18        28.4902   19.5809   58.1836 H           1 MOL       0.2095
@<TRIPOS>BOND
     1     4     1   1
     2     1     3  ar
     3     1     2  ar
     4     4    14   1
     5     4     5   2
     6     5     6   1
     7     6     8   1
     8     6     7   1
     9     8    13   1
    10     8     9   1
    11     9    10  am
    12    10    12   1
    13    10    11   2
    14    13    15   1
    15    13    14   1
    16    15    17   1
    17    15    16   1
    18    17    19   1
    19    17    18   1
    20    19    20   1
    21     5    21   1
    22     6    22   1
    23     7    23   1
    24     7    24   1
    25     7    25   1
    26     8    26   1
    27     9    27   1
    28    12    28   1
    29    12    29   1
    30    12    30   1
    31    13    31   1
    32    15    32   1
    33    16    33   1
    34    17    34   1
    35    18    35   1
    36    19    36   1
    37    19    37   1
    38    20    38   1
@<TRIPOS>SUBSTRUCTURE
     1  MOL      1

