@<TRIPOS>MOLECULE
1f8c_ligand_061
    38    38
SMALL
GAST_HUCK
****
This file was generated by PARSER (from files_GN.cpp)

@<TRIPOS>ATOM
      1 C1         30.3484   16.0190   61.9292 C.2         1 MOL       0.0810
      2 O1A        30.5356   15.4704   63.1606 O.co2       1 MOL      -0.5623
      3 O1B        31.4499   16.4672   61.2696 O.co2       1 MOL      -0.5623
      4 C2         29.0823   16.3199   61.4613 C.2         1 MOL       0.1116
      5 C3         28.1597   15.3758   61.1898 C.2         1 MOL      -0.0085
      6 C4         26.8006   15.7111   60.7812 C.3         1 MOL       0.0210
      7 N4         26.6219   15.2588   59.3906 N.4         1 MOL       0.2321
      8 C5         26.4130   17.2308   60.9424 C.3         1 MOL       0.1228
      9 N5         25.1023   17.4393   61.5058 N.am        1 MOL      -0.2741
     10 C10        24.5947   16.9067   62.6098 C.2         1 MOL       0.1735
     11 O10        25.2267   16.1175   63.3044 O.2         1 MOL      -0.3974
     12 C11        23.2469   17.2510   63.0054 C.3         1 MOL       0.0257
     13 C6         27.5042   18.0469   61.7195 C.3         1 MOL       0.1349
     14 O6         28.8053   17.6224   61.2467 O.3         1 MOL      -0.3186
     15 C7         27.3894   19.5982   61.5790 C.3         1 MOL       0.1156
     16 O7         27.7056   20.0012   60.2410 O.3         1 MOL      -0.3861
     17 C8         28.2990   20.4235   62.5424 C.3         1 MOL       0.1068
     18 O8         29.6826   20.1499   62.3201 O.3         1 MOL      -0.3869
     19 C9         27.9891   20.2359   64.0494 C.3         1 MOL       0.0727
     20 O9         28.4409   21.3625   64.7991 O.3         1 MOL      -0.3924
     21 H1         28.3906   14.4112   61.2842 H           1 MOL       0.0510
     22 H2         26.1349   15.0965   61.3904 H           1 MOL       0.0996
     23 H3         26.8424   14.2631   59.3206 H           1 MOL       0.2008
     24 H4         27.2467   15.7849   58.7769 H           1 MOL       0.2008
     25 H5         25.6567   15.4043   59.0876 H           1 MOL       0.2008
     26 H6         26.3656   17.6584   59.9359 H           1 MOL       0.0664
     27 H7         24.5327   18.0627   61.0243 H           1 MOL       0.1859
     28 H8         22.9149   16.6616   63.8626 H           1 MOL       0.0467
     29 H9         22.5570   17.0734   62.1769 H           1 MOL       0.0467
     30 H10        23.2074   18.3043   63.2821 H           1 MOL       0.0467
     31 H11        27.4223   17.8045   62.7824 H           1 MOL       0.0698
     32 H12        26.3522   19.8919   61.7686 H           1 MOL       0.0650
     33 H13        26.9003   19.8220   59.7135 H           1 MOL       0.2100
     34 H14        28.1475   21.4804   62.3124 H           1 MOL       0.0643
     35 H15        29.9132   20.6159   61.4872 H           1 MOL       0.2100
     36 H16        28.4856   19.3433   64.4384 H           1 MOL       0.0584
     37 H17        26.9146   20.1319   64.2045 H           1 MOL       0.0584
     38 H18        29.4030   21.4213   64.6245 H           1 MOL       0.2095
@<TRIPOS>BOND
     1     4     1   1
     2     1     3  ar
     3     1     2  ar
     4     4    14   1
     5     4     5   2
     6     5     6   1
     7     6     8   1
     8     6     7   1
     9     8    13   1
    10     8     9   1
    11     9    10  am
    12    10    12   1
    13    10    11   2
    14    13    15   1
    15    13    14   1
    16    15    17   1
    17    15    16   1
    18    17    19   1
    19    17    18   1
    20    19    20   1
    21     5    21   1
    22     6    22   1
    23     7    23   1
    24     7    24   1
    25     7    25   1
    26     8    26   1
    27     9    27   1
    28    12    28   1
    29    12    29   1
    30    12    30   1
    31    13    31   1
    32    15    32   1
    33    16    33   1
    34    17    34   1
    35    18    35   1
    36    19    36   1
    37    19    37   1
    38    20    38   1
@<TRIPOS>SUBSTRUCTURE
     1  MOL      1

