@<TRIPOS>MOLECULE
1f8c_ligand_010
    38    38
SMALL
GAST_HUCK
****
This file was generated by PARSER (from files_GN.cpp)

@<TRIPOS>ATOM
      1 C1         27.9981   19.4787   62.4608 C.2         1 MOL       0.0810
      2 O1A        29.3325   19.2426   62.5272 O.co2       1 MOL      -0.5623
      3 O1B        27.5459   20.6225   63.0232 O.co2       1 MOL      -0.5623
      4 C2         27.1059   18.5179   62.0002 C.2         1 MOL       0.1116
      5 C3         27.4282   17.6299   61.0425 C.2         1 MOL      -0.0085
      6 C4         26.4877   16.6111   60.5941 C.3         1 MOL       0.0210
      7 N4         26.0545   17.0126   59.2438 N.4         1 MOL       0.2321
      8 C5         25.2459   16.3894   61.5386 C.3         1 MOL       0.1228
      9 N5         24.9270   15.0028   61.7555 N.am        1 MOL      -0.2741
     10 C10        25.6145   14.1043   62.4516 C.2         1 MOL       0.1735
     11 O10        26.6932   14.3583   62.9729 O.2         1 MOL      -0.3974
     12 C11        25.0590   12.7788   62.5922 C.3         1 MOL       0.0257
     13 C6         25.3411   17.2179   62.8671 C.3         1 MOL       0.1349
     14 O6         25.8649   18.5262   62.5301 O.3         1 MOL      -0.3186
     15 C7         23.9826   17.3450   63.6225 C.3         1 MOL       0.1156
     16 O7         22.9281   17.5670   62.6745 O.3         1 MOL      -0.3861
     17 C8         23.9332   18.3804   64.7991 C.3         1 MOL       0.1068
     18 O8         22.7319   19.1517   64.6983 O.3         1 MOL      -0.3869
     19 C9         25.0925   19.3962   64.9417 C.3         1 MOL       0.0727
     20 O9         24.9803   20.4715   64.0058 O.3         1 MOL      -0.3924
     21 H1         28.3250   17.6589   60.6038 H           1 MOL       0.0510
     22 H2         27.0440   15.6779   60.4910 H           1 MOL       0.0996
     23 H3         26.8674   17.1067   58.6306 H           1 MOL       0.2008
     24 H4         25.5628   17.9105   59.2999 H           1 MOL       0.2008
     25 H5         25.4194   16.3097   58.8607 H           1 MOL       0.2008
     26 H6         24.3777   16.7845   61.0029 H           1 MOL       0.0664
     27 H7         24.0910   14.6908   61.3697 H           1 MOL       0.1859
     28 H8         25.6710   12.1536   63.2369 H           1 MOL       0.0467
     29 H9         24.9919   12.3016   61.6159 H           1 MOL       0.0467
     30 H10        24.0599   12.8382   63.0242 H           1 MOL       0.0467
     31 H11        26.0425   16.7252   63.5522 H           1 MOL       0.0698
     32 H12        23.7653   16.3694   64.0688 H           1 MOL       0.0650
     33 H13        22.1406   17.1072   63.0546 H           1 MOL       0.2100
     34 H14        23.8614   17.8243   65.7470 H           1 MOL       0.0643
     35 H15        22.7670   19.5208   63.7836 H           1 MOL       0.2100
     36 H16        26.0509   18.8897   64.8059 H           1 MOL       0.0584
     37 H17        25.0903   19.8208   65.9415 H           1 MOL       0.0584
     38 H18        24.5472   20.0908   63.2181 H           1 MOL       0.2095
@<TRIPOS>BOND
     1     4     1   1
     2     1     3  ar
     3     1     2  ar
     4     4    14   1
     5     4     5   2
     6     5     6   1
     7     6     8   1
     8     6     7   1
     9     8    13   1
    10     8     9   1
    11     9    10  am
    12    10    12   1
    13    10    11   2
    14    13    15   1
    15    13    14   1
    16    15    17   1
    17    15    16   1
    18    17    19   1
    19    17    18   1
    20    19    20   1
    21     5    21   1
    22     6    22   1
    23     7    23   1
    24     7    24   1
    25     7    25   1
    26     8    26   1
    27     9    27   1
    28    12    28   1
    29    12    29   1
    30    12    30   1
    31    13    31   1
    32    15    32   1
    33    16    33   1
    34    17    34   1
    35    18    35   1
    36    19    36   1
    37    19    37   1
    38    20    38   1
@<TRIPOS>SUBSTRUCTURE
     1  MOL      1

