@<TRIPOS>MOLECULE
1f8c_ligand_048
    38    38
SMALL
GAST_HUCK
****
This file was generated by PARSER (from files_GN.cpp)

@<TRIPOS>ATOM
      1 C1         26.4876   15.0285   62.1949 C.2         1 MOL       0.0810
      2 O1A        27.1190   13.8572   62.4919 O.co2       1 MOL      -0.5623
      3 O1B        25.9867   15.2153   60.9396 O.co2       1 MOL      -0.5623
      4 C2         26.4228   16.0370   63.1284 C.2         1 MOL       0.1116
      5 C3         25.2799   16.2999   63.7970 C.2         1 MOL      -0.0085
      6 C4         25.2875   17.3823   64.7711 C.3         1 MOL       0.0210
      7 N4         23.9188   17.6718   65.2402 N.4         1 MOL       0.2321
      8 C5         25.9588   18.6372   64.1220 C.3         1 MOL       0.1228
      9 N5         26.1768   19.6571   65.1133 N.am        1 MOL      -0.2741
     10 C10        25.3011   20.5508   65.5665 C.2         1 MOL       0.1735
     11 O10        24.1252   20.5463   65.1842 O.2         1 MOL      -0.3974
     12 C11        25.7140   21.4876   66.5766 C.3         1 MOL       0.0257
     13 C6         27.3144   18.2355   63.4056 C.3         1 MOL       0.1349
     14 O6         27.5282   16.7989   63.3463 O.3         1 MOL      -0.3186
     15 C7         27.4603   18.8772   61.9831 C.3         1 MOL       0.1156
     16 O7         26.8004   18.0682   61.0044 O.3         1 MOL      -0.3861
     17 C8         28.9124   19.1998   61.5283 C.3         1 MOL       0.1068
     18 O8         28.9080   19.3470   60.1038 O.3         1 MOL      -0.3869
     19 C9         30.0158   18.1739   61.8931 C.3         1 MOL       0.0727
     20 O9         31.3066   18.7871   61.8481 O.3         1 MOL      -0.3924
     21 H1         24.4444   15.7843   63.6255 H           1 MOL       0.0510
     22 H2         25.8822   17.0736   65.6409 H           1 MOL       0.0996
     23 H3         23.5416   16.8155   65.6514 H           1 MOL       0.2008
     24 H4         23.3437   17.9679   64.4431 H           1 MOL       0.2008
     25 H5         23.9495   18.4156   65.9444 H           1 MOL       0.2008
     26 H6         25.2484   19.0041   63.3630 H           1 MOL       0.0664
     27 H7         27.0618   19.6806   65.5301 H           1 MOL       0.1859
     28 H8         24.8787   22.1283   66.8981 H           1 MOL       0.0467
     29 H9         26.5149   22.1266   66.1862 H           1 MOL       0.0467
     30 H10        26.0902   20.9402   67.4564 H           1 MOL       0.0467
     31 H11        28.1436   18.6038   64.0169 H           1 MOL       0.0698
     32 H12        26.9432   19.8431   61.9870 H           1 MOL       0.0650
     33 H13        25.9432   18.5236   60.8419 H           1 MOL       0.2100
     34 H14        29.1947   20.1697   61.9557 H           1 MOL       0.0643
     35 H15        28.0987   19.8727   59.8959 H           1 MOL       0.2100
     36 H16        29.9925   17.3278   61.2062 H           1 MOL       0.0584
     37 H17        29.8649   17.8157   62.9113 H           1 MOL       0.0584
     38 H18        31.2560   19.4812   61.1500 H           1 MOL       0.2095
@<TRIPOS>BOND
     1     4     1   1
     2     1     3  ar
     3     1     2  ar
     4     4    14   1
     5     4     5   2
     6     5     6   1
     7     6     8   1
     8     6     7   1
     9     8    13   1
    10     8     9   1
    11     9    10  am
    12    10    12   1
    13    10    11   2
    14    13    15   1
    15    13    14   1
    16    15    17   1
    17    15    16   1
    18    17    19   1
    19    17    18   1
    20    19    20   1
    21     5    21   1
    22     6    22   1
    23     7    23   1
    24     7    24   1
    25     7    25   1
    26     8    26   1
    27     9    27   1
    28    12    28   1
    29    12    29   1
    30    12    30   1
    31    13    31   1
    32    15    32   1
    33    16    33   1
    34    17    34   1
    35    18    35   1
    36    19    36   1
    37    19    37   1
    38    20    38   1
@<TRIPOS>SUBSTRUCTURE
     1  MOL      1

