@<TRIPOS>MOLECULE
1f8c_ligand_034
    38    38
SMALL
GAST_HUCK
****
This file was generated by PARSER (from files_GN.cpp)

@<TRIPOS>ATOM
      1 C1         28.1672   21.9614   66.4512 C.2         1 MOL       0.0810
      2 O1A        28.8274   22.0088   67.6439 O.co2       1 MOL      -0.5623
      3 O1B        28.3330   23.0258   65.6261 O.co2       1 MOL      -0.5623
      4 C2         27.4120   20.8718   66.0598 C.2         1 MOL       0.1116
      5 C3         26.7797   20.0642   66.9396 C.2         1 MOL      -0.0085
      6 C4         25.9387   18.9454   66.5236 C.3         1 MOL       0.0210
      7 N4         26.2437   17.7850   67.3743 N.4         1 MOL       0.2321
      8 C5         26.0775   18.5415   65.0135 C.3         1 MOL       0.1228
      9 N5         24.9555   17.7769   64.5498 N.am        1 MOL      -0.2741
     10 C10        23.6763   18.1301   64.4987 C.2         1 MOL       0.1735
     11 O10        23.2568   19.1838   64.9615 O.2         1 MOL      -0.3974
     12 C11        22.7443   17.2673   63.8089 C.3         1 MOL       0.0257
     13 C6         26.3766   19.8033   64.1309 C.3         1 MOL       0.1349
     14 O6         27.4095   20.6195   64.7248 O.3         1 MOL      -0.3186
     15 C7         26.7680   19.5252   62.6410 C.3         1 MOL       0.1156
     16 O7         25.9651   18.4601   62.1178 O.3         1 MOL      -0.3861
     17 C8         28.2664   19.2209   62.2996 C.3         1 MOL       0.1068
     18 O8         28.6481   17.9446   62.8121 O.3         1 MOL      -0.3869
     19 C9         29.3066   20.2840   62.7614 C.3         1 MOL       0.0727
     20 O9         28.7673   21.6036   62.7797 O.3         1 MOL      -0.3924
     21 H1         26.7934   20.2921   67.9132 H           1 MOL       0.0510
     22 H2         24.9143   19.2522   66.7367 H           1 MOL       0.0996
     23 H3         26.0465   18.0141   68.3468 H           1 MOL       0.2008
     24 H4         27.2294   17.5462   67.2724 H           1 MOL       0.2008
     25 H5         25.6756   16.9878   67.0940 H           1 MOL       0.2008
     26 H6         26.9506   17.9017   64.9413 H           1 MOL       0.0664
     27 H7         25.1699   16.9126   64.1627 H           1 MOL       0.1859
     28 H8         21.7469   17.7074   63.7627 H           1 MOL       0.0467
     29 H9         22.6804   16.3120   64.3310 H           1 MOL       0.0467
     30 H10        23.0852   17.0955   62.7860 H           1 MOL       0.0467
     31 H11        25.4719   20.4178   64.1103 H           1 MOL       0.0698
     32 H12        26.4915   20.4187   62.0671 H           1 MOL       0.0650
     33 H13        25.4720   18.8239   61.3352 H           1 MOL       0.2100
     34 H14        28.3436   19.1556   61.2104 H           1 MOL       0.0643
     35 H15        29.4646   17.6963   62.3202 H           1 MOL       0.2100
     36 H16        30.1709   20.2692   62.0969 H           1 MOL       0.0584
     37 H17        29.6604   20.0601   63.7628 H           1 MOL       0.0584
     38 H18        28.7521   21.8983   61.8311 H           1 MOL       0.2095
@<TRIPOS>BOND
     1     4     1   1
     2     1     3  ar
     3     1     2  ar
     4     4    14   1
     5     4     5   2
     6     5     6   1
     7     6     8   1
     8     6     7   1
     9     8    13   1
    10     8     9   1
    11     9    10  am
    12    10    12   1
    13    10    11   2
    14    13    15   1
    15    13    14   1
    16    15    17   1
    17    15    16   1
    18    17    19   1
    19    17    18   1
    20    19    20   1
    21     5    21   1
    22     6    22   1
    23     7    23   1
    24     7    24   1
    25     7    25   1
    26     8    26   1
    27     9    27   1
    28    12    28   1
    29    12    29   1
    30    12    30   1
    31    13    31   1
    32    15    32   1
    33    16    33   1
    34    17    34   1
    35    18    35   1
    36    19    36   1
    37    19    37   1
    38    20    38   1
@<TRIPOS>SUBSTRUCTURE
     1  MOL      1

