@<TRIPOS>MOLECULE
1f8c_ligand_075
    38    38
SMALL
GAST_HUCK
****
This file was generated by PARSER (from files_GN.cpp)

@<TRIPOS>ATOM
      1 C1         28.3359   19.1745   58.1460 C.2         1 MOL       0.0810
      2 O1A        29.5994   19.2521   57.6490 O.co2       1 MOL      -0.5623
      3 O1B        27.3164   19.1477   57.2428 O.co2       1 MOL      -0.5623
      4 C2         28.1128   19.1085   59.4923 C.2         1 MOL       0.1116
      5 C3         27.2682   19.9438   60.1299 C.2         1 MOL      -0.0085
      6 C4         27.1091   19.8253   61.5570 C.3         1 MOL       0.0210
      7 N4         28.3018   20.4260   62.1961 N.4         1 MOL       0.2321
      8 C5         26.9555   18.3201   61.9786 C.3         1 MOL       0.1228
      9 N5         25.5710   17.9424   61.8047 N.am        1 MOL      -0.2741
     10 C10        24.8652   17.0725   62.5305 C.2         1 MOL       0.1735
     11 O10        25.3656   16.4654   63.4775 O.2         1 MOL      -0.3974
     12 C11        23.4761   16.8640   62.1896 C.3         1 MOL       0.0257
     13 C6         27.9021   17.3875   61.0984 C.3         1 MOL       0.1349
     14 O6         28.7694   18.1662   60.2345 O.3         1 MOL      -0.3186
     15 C7         28.7796   16.3198   61.8456 C.3         1 MOL       0.1156
     16 O7         28.0597   15.1030   62.0589 O.3         1 MOL      -0.3861
     17 C8         29.5362   16.7489   63.1470 C.3         1 MOL       0.1068
     18 O8         30.6811   15.9020   63.3024 O.3         1 MOL      -0.3869
     19 C9         28.7162   16.7412   64.4838 C.3         1 MOL       0.0727
     20 O9         29.2825   15.9323   65.5212 O.3         1 MOL      -0.3924
     21 H1         26.7588   20.6419   59.6295 H           1 MOL       0.0510
     22 H2         26.2483   20.4003   61.8934 H           1 MOL       0.0996
     23 H3         28.5474   21.2881   61.7051 H           1 MOL       0.2008
     24 H4         29.0916   19.7773   62.1351 H           1 MOL       0.2008
     25 H5         28.1065   20.6291   63.1845 H           1 MOL       0.2008
     26 H6         27.1956   18.2534   63.0383 H           1 MOL       0.0664
     27 H7         25.0817   18.4020   61.0875 H           1 MOL       0.1859
     28 H8         23.0310   16.0995   62.8257 H           1 MOL       0.0467
     29 H9         23.3927   16.5446   61.1451 H           1 MOL       0.0467
     30 H10        22.9270   17.7995   62.3273 H           1 MOL       0.0467
     31 H11        27.2702   16.8042   60.4092 H           1 MOL       0.0698
     32 H12        29.5515   16.0284   61.1283 H           1 MOL       0.0650
     33 H13        27.1510   15.3742   62.3274 H           1 MOL       0.2100
     34 H14        29.9361   17.7502   62.9935 H           1 MOL       0.0643
     35 H15        30.3128   14.9905   63.3827 H           1 MOL       0.2100
     36 H16        27.7079   16.3594   64.3279 H           1 MOL       0.0584
     37 H17        28.6237   17.7619   64.8754 H           1 MOL       0.0584
     38 H18        29.8465   16.5431   66.0544 H           1 MOL       0.2095
@<TRIPOS>BOND
     1     4     1   1
     2     1     3  ar
     3     1     2  ar
     4     4    14   1
     5     4     5   2
     6     5     6   1
     7     6     8   1
     8     6     7   1
     9     8    13   1
    10     8     9   1
    11     9    10  am
    12    10    12   1
    13    10    11   2
    14    13    15   1
    15    13    14   1
    16    15    17   1
    17    15    16   1
    18    17    19   1
    19    17    18   1
    20    19    20   1
    21     5    21   1
    22     6    22   1
    23     7    23   1
    24     7    24   1
    25     7    25   1
    26     8    26   1
    27     9    27   1
    28    12    28   1
    29    12    29   1
    30    12    30   1
    31    13    31   1
    32    15    32   1
    33    16    33   1
    34    17    34   1
    35    18    35   1
    36    19    36   1
    37    19    37   1
    38    20    38   1
@<TRIPOS>SUBSTRUCTURE
     1  MOL      1

