@<TRIPOS>MOLECULE
1f8c_ligand_029
    38    38
SMALL
GAST_HUCK
****
This file was generated by PARSER (from files_GN.cpp)

@<TRIPOS>ATOM
      1 C1         28.3019   17.2349   65.2760 C.2         1 MOL       0.0810
      2 O1A        28.8991   18.2789   65.9148 O.co2       1 MOL      -0.5623
      3 O1B        28.6787   15.9785   65.6300 O.co2       1 MOL      -0.5623
      4 C2         27.3301   17.4686   64.3255 C.2         1 MOL       0.1116
      5 C3         27.2454   16.7970   63.1546 C.2         1 MOL      -0.0085
      6 C4         26.1556   17.0792   62.2524 C.3         1 MOL       0.0210
      7 N4         26.4931   18.2921   61.4871 N.4         1 MOL       0.2321
      8 C5         24.7906   17.2795   63.0142 C.3         1 MOL       0.1228
      9 N5         23.9443   16.1242   63.0888 N.am        1 MOL      -0.2741
     10 C10        24.2549   14.8298   63.1032 C.2         1 MOL       0.1735
     11 O10        25.4155   14.4380   63.0640 O.2         1 MOL      -0.3974
     12 C11        23.1916   13.8558   63.1595 C.3         1 MOL       0.0257
     13 C6         25.0332   17.9162   64.4515 C.3         1 MOL       0.1349
     14 O6         26.3855   18.4037   64.5957 O.3         1 MOL      -0.3186
     15 C7         24.0240   19.0470   64.8277 C.3         1 MOL       0.1156
     16 O7         24.2376   20.2507   64.0496 O.3         1 MOL      -0.3861
     17 C8         24.0274   19.4209   66.3563 C.3         1 MOL       0.1068
     18 O8         22.6693   19.5897   66.7501 O.3         1 MOL      -0.3869
     19 C9         24.8100   20.6860   66.7902 C.3         1 MOL       0.0727
     20 O9         25.7453   21.1772   65.8191 O.3         1 MOL      -0.3924
     21 H1         27.8896   16.0646   62.9420 H           1 MOL       0.0510
     22 H2         26.0595   16.2843   61.5080 H           1 MOL       0.0996
     23 H3         27.3552   18.1380   60.9501 H           1 MOL       0.2008
     24 H4         26.6313   19.0833   62.1254 H           1 MOL       0.2008
     25 H5         25.7306   18.5128   60.8404 H           1 MOL       0.2008
     26 H6         24.2125   17.9803   62.4136 H           1 MOL       0.0664
     27 H7         22.9875   16.3117   63.1680 H           1 MOL       0.1859
     28 H8         23.5752   12.8398   63.1249 H           1 MOL       0.0467
     29 H9         22.5177   13.9958   62.3159 H           1 MOL       0.0467
     30 H10        22.6337   13.9824   64.0834 H           1 MOL       0.0467
     31 H11        24.8991   17.1182   65.1847 H           1 MOL       0.0698
     32 H12        23.0289   18.6608   64.5586 H           1 MOL       0.0650
     33 H13        24.1392   19.9399   63.1288 H           1 MOL       0.2100
     34 H14        24.4160   18.5724   66.9202 H           1 MOL       0.0643
     35 H15        22.6403   19.4303   67.7251 H           1 MOL       0.2100
     36 H16        25.3325   20.4700   67.7306 H           1 MOL       0.0584
     37 H17        24.1140   21.5073   66.9960 H           1 MOL       0.0584
     38 H18        26.4400   20.4874   65.7347 H           1 MOL       0.2095
@<TRIPOS>BOND
     1     4     1   1
     2     1     3  ar
     3     1     2  ar
     4     4    14   1
     5     4     5   2
     6     5     6   1
     7     6     8   1
     8     6     7   1
     9     8    13   1
    10     8     9   1
    11     9    10  am
    12    10    12   1
    13    10    11   2
    14    13    15   1
    15    13    14   1
    16    15    17   1
    17    15    16   1
    18    17    19   1
    19    17    18   1
    20    19    20   1
    21     5    21   1
    22     6    22   1
    23     7    23   1
    24     7    24   1
    25     7    25   1
    26     8    26   1
    27     9    27   1
    28    12    28   1
    29    12    29   1
    30    12    30   1
    31    13    31   1
    32    15    32   1
    33    16    33   1
    34    17    34   1
    35    18    35   1
    36    19    36   1
    37    19    37   1
    38    20    38   1
@<TRIPOS>SUBSTRUCTURE
     1  MOL      1

