@<TRIPOS>MOLECULE
1f8c_ligand_054
    38    38
SMALL
GAST_HUCK
****
This file was generated by PARSER (from files_GN.cpp)

@<TRIPOS>ATOM
      1 C1         26.5968   16.4502   64.9121 C.2         1 MOL       0.0810
      2 O1A        26.1972   17.4344   65.7623 O.co2       1 MOL      -0.5623
      3 O1B        27.6209   15.6569   65.3259 O.co2       1 MOL      -0.5623
      4 C2         26.3267   16.5446   63.5755 C.2         1 MOL       0.1116
      5 C3         25.7766   15.5318   62.8762 C.2         1 MOL      -0.0085
      6 C4         25.4837   15.7430   61.4754 C.3         1 MOL       0.0210
      7 N4         25.0543   14.4963   60.8216 N.4         1 MOL       0.2321
      8 C5         26.7164   16.3878   60.7683 C.3         1 MOL       0.1228
      9 N5         26.3831   16.6993   59.3941 N.am        1 MOL      -0.2741
     10 C10        27.0486   17.4374   58.5080 C.2         1 MOL       0.1735
     11 O10        28.0464   18.0830   58.8159 O.2         1 MOL      -0.3974
     12 C11        26.5767   17.4596   57.1377 C.3         1 MOL       0.0257
     13 C6         27.2462   17.6070   61.6397 C.3         1 MOL       0.1349
     14 O6         26.6132   17.7096   62.9519 O.3         1 MOL      -0.3186
     15 C7         28.8098   17.6283   61.7723 C.3         1 MOL       0.1156
     16 O7         29.2591   16.9452   62.9488 O.3         1 MOL      -0.3861
     17 C8         29.5026   19.0214   61.6573 C.3         1 MOL       0.1068
     18 O8         30.9165   18.8069   61.6661 O.3         1 MOL      -0.3869
     19 C9         29.1255   20.0573   62.7605 C.3         1 MOL       0.0727
     20 O9         28.0556   20.9026   62.3526 O.3         1 MOL      -0.3924
     21 H1         25.5718   14.6543   63.3102 H           1 MOL       0.0510
     22 H2         24.6425   16.4447   61.4045 H           1 MOL       0.0996
     23 H3         24.2025   14.1525   61.2850 H           1 MOL       0.2008
     24 H4         25.7879   13.7886   60.9012 H           1 MOL       0.2008
     25 H5         24.8444   14.6655   59.8290 H           1 MOL       0.2008
     26 H6         27.4884   15.6134   60.7371 H           1 MOL       0.0664
     27 H7         25.5915   16.2481   59.0322 H           1 MOL       0.1859
     28 H8         27.0917   18.2279   56.5421 H           1 MOL       0.0467
     29 H9         25.5042   17.6651   57.1104 H           1 MOL       0.0467
     30 H10        26.7591   16.4856   56.6764 H           1 MOL       0.0467
     31 H11        26.9379   18.5233   61.1280 H           1 MOL       0.0698
     32 H12        29.2422   17.0477   60.9448 H           1 MOL       0.0650
     33 H13        28.8440   17.4100   63.7045 H           1 MOL       0.2100
     34 H14        29.2481   19.4476   60.6786 H           1 MOL       0.0643
     35 H15        31.2738   19.5367   61.1254 H           1 MOL       0.2100
     36 H16        29.9920   20.6833   62.9846 H           1 MOL       0.0584
     37 H17        28.8355   19.5453   63.6783 H           1 MOL       0.0584
     38 H18        28.4303   21.4696   61.6449 H           1 MOL       0.2095
@<TRIPOS>BOND
     1     4     1   1
     2     1     3  ar
     3     1     2  ar
     4     4    14   1
     5     4     5   2
     6     5     6   1
     7     6     8   1
     8     6     7   1
     9     8    13   1
    10     8     9   1
    11     9    10  am
    12    10    12   1
    13    10    11   2
    14    13    15   1
    15    13    14   1
    16    15    17   1
    17    15    16   1
    18    17    19   1
    19    17    18   1
    20    19    20   1
    21     5    21   1
    22     6    22   1
    23     7    23   1
    24     7    24   1
    25     7    25   1
    26     8    26   1
    27     9    27   1
    28    12    28   1
    29    12    29   1
    30    12    30   1
    31    13    31   1
    32    15    32   1
    33    16    33   1
    34    17    34   1
    35    18    35   1
    36    19    36   1
    37    19    37   1
    38    20    38   1
@<TRIPOS>SUBSTRUCTURE
     1  MOL      1

