@<TRIPOS>MOLECULE
1f8c_ligand_004
    38    38
SMALL
GAST_HUCK
****
This file was generated by PARSER (from files_GN.cpp)

@<TRIPOS>ATOM
      1 C1         24.2334   19.6809   64.6901 C.2         1 MOL       0.0810
      2 O1A        24.4178   20.9714   64.3071 O.co2       1 MOL      -0.5623
      3 O1B        23.0253   19.3814   65.2427 O.co2       1 MOL      -0.5623
      4 C2         25.1509   18.7159   64.3316 C.2         1 MOL       0.1116
      5 C3         25.3827   17.6034   65.0549 C.2         1 MOL      -0.0085
      6 C4         26.3831   16.6689   64.5737 C.3         1 MOL       0.0210
      7 N4         27.7187   17.2305   64.8737 N.4         1 MOL       0.2321
      8 C5         26.2220   16.4096   63.0368 C.3         1 MOL       0.1228
      9 N5         25.2495   15.3627   62.8340 N.am        1 MOL      -0.2741
     10 C10        25.4943   14.0600   62.7882 C.2         1 MOL       0.1735
     11 O10        26.6267   13.6095   62.9275 O.2         1 MOL      -0.3974
     12 C11        24.3883   13.1415   62.6078 C.3         1 MOL       0.0257
     13 C6         25.7750   17.7293   62.2851 C.3         1 MOL       0.1349
     14 O6         25.8621   18.8784   63.1809 O.3         1 MOL      -0.3186
     15 C7         26.5525   17.9974   60.9429 C.3         1 MOL       0.1156
     16 O7         26.5778   19.3954   60.6386 O.3         1 MOL      -0.3861
     17 C8         25.9430   17.2212   59.7260 C.3         1 MOL       0.1068
     18 O8         26.1679   15.8187   59.8816 O.3         1 MOL      -0.3869
     19 C9         26.4720   17.6595   58.3273 C.3         1 MOL       0.0727
     20 O9         25.3897   17.7313   57.3938 O.3         1 MOL      -0.3924
     21 H1         24.8567   17.3917   65.8687 H           1 MOL       0.0510
     22 H2         26.3249   15.7291   65.1243 H           1 MOL       0.0996
     23 H3         27.8073   17.3850   65.8800 H           1 MOL       0.2008
     24 H4         27.8409   18.1160   64.3804 H           1 MOL       0.2008
     25 H5         28.4445   16.5749   64.5731 H           1 MOL       0.2008
     26 H6         27.1897   16.0798   62.6508 H           1 MOL       0.0664
     27 H7         24.3193   15.6338   62.7669 H           1 MOL       0.1859
     28 H8         24.7404   12.1080   62.5501 H           1 MOL       0.0467
     29 H9         23.8606   13.3777   61.6852 H           1 MOL       0.0467
     30 H10        23.7015   13.2250   63.4487 H           1 MOL       0.0467
     31 H11        24.7121   17.6570   62.0195 H           1 MOL       0.0698
     32 H12        27.5996   17.7041   61.0482 H           1 MOL       0.0650
     33 H13        26.2394   19.8873   61.4274 H           1 MOL       0.2100
     34 H14        24.8610   17.3722   59.7395 H           1 MOL       0.0643
     35 H15        25.5538   15.3899   59.2325 H           1 MOL       0.2100
     36 H16        27.2218   16.9558   57.9569 H           1 MOL       0.0584
     37 H17        26.9372   18.6460   58.3503 H           1 MOL       0.0584
     38 H18        25.7908   17.5756   56.5138 H           1 MOL       0.2095
@<TRIPOS>BOND
     1     4     1   1
     2     1     3  ar
     3     1     2  ar
     4     4    14   1
     5     4     5   2
     6     5     6   1
     7     6     8   1
     8     6     7   1
     9     8    13   1
    10     8     9   1
    11     9    10  am
    12    10    12   1
    13    10    11   2
    14    13    15   1
    15    13    14   1
    16    15    17   1
    17    15    16   1
    18    17    19   1
    19    17    18   1
    20    19    20   1
    21     5    21   1
    22     6    22   1
    23     7    23   1
    24     7    24   1
    25     7    25   1
    26     8    26   1
    27     9    27   1
    28    12    28   1
    29    12    29   1
    30    12    30   1
    31    13    31   1
    32    15    32   1
    33    16    33   1
    34    17    34   1
    35    18    35   1
    36    19    36   1
    37    19    37   1
    38    20    38   1
@<TRIPOS>SUBSTRUCTURE
     1  MOL      1

