@<TRIPOS>MOLECULE
1f8c_ligand_032
    38    38
SMALL
GAST_HUCK
****
This file was generated by PARSER (from files_GN.cpp)

@<TRIPOS>ATOM
      1 C1         25.6239   13.5288   62.7123 C.2         1 MOL       0.0810
      2 O1A        24.5639   12.7121   62.5083 O.co2       1 MOL      -0.5623
      3 O1B        26.8512   12.9666   62.7077 O.co2       1 MOL      -0.5623
      4 C2         25.4937   14.9098   62.7923 C.2         1 MOL       0.1116
      5 C3         24.3429   15.5117   63.1699 C.2         1 MOL      -0.0085
      6 C4         24.2206   16.9577   63.3001 C.3         1 MOL       0.0210
      7 N4         23.0760   17.3852   62.4767 N.4         1 MOL       0.2321
      8 C5         25.5259   17.7699   62.9621 C.3         1 MOL       0.1228
      9 N5         26.2072   18.0741   64.1969 N.am        1 MOL      -0.2741
     10 C10        26.3115   19.2573   64.7959 C.2         1 MOL       0.1735
     11 O10        25.8260   20.2791   64.3237 O.2         1 MOL      -0.3974
     12 C11        27.0162   19.3259   66.0526 C.3         1 MOL       0.0257
     13 C6         26.5038   16.9595   62.0398 C.3         1 MOL       0.1349
     14 O6         26.6208   15.6226   62.5695 O.3         1 MOL      -0.3186
     15 C7         26.1664   17.0319   60.5112 C.3         1 MOL       0.1156
     16 O7         24.7842   16.7607   60.2748 O.3         1 MOL      -0.3861
     17 C8         27.0437   16.1455   59.5681 C.3         1 MOL       0.1068
     18 O8         26.7819   16.5148   58.2124 O.3         1 MOL      -0.3869
     19 C9         26.8833   14.6011   59.7026 C.3         1 MOL       0.0727
     20 O9         25.5509   14.2106   60.0283 O.3         1 MOL      -0.3924
     21 H1         23.5444   14.9572   63.3831 H           1 MOL       0.0510
     22 H2         23.9203   17.1566   64.3337 H           1 MOL       0.0996
     23 H3         22.2165   16.9524   62.8353 H           1 MOL       0.2008
     24 H4         23.2191   17.0975   61.5063 H           1 MOL       0.2008
     25 H5         22.9952   18.4057   62.5213 H           1 MOL       0.2008
     26 H6         25.2434   18.6984   62.4500 H           1 MOL       0.0664
     27 H7         26.6198   17.3261   64.6471 H           1 MOL       0.1859
     28 H8         27.0201   20.3417   66.4513 H           1 MOL       0.0467
     29 H9         28.0478   19.0056   65.9108 H           1 MOL       0.0467
     30 H10        26.5361   18.6710   66.7802 H           1 MOL       0.0467
     31 H11        27.5045   17.4082   62.1335 H           1 MOL       0.0698
     32 H12        26.3517   18.0781   60.2086 H           1 MOL       0.0650
     33 H13        24.4867   17.5522   59.7680 H           1 MOL       0.2100
     34 H14        28.0940   16.3826   59.7577 H           1 MOL       0.0643
     35 H15        25.8327   16.3241   58.0662 H           1 MOL       0.2100
     36 H16        27.5633   14.2341   60.4662 H           1 MOL       0.0584
     37 H17        27.1547   14.1141   58.7614 H           1 MOL       0.0584
     38 H18        25.0025   14.4571   59.2420 H           1 MOL       0.2095
@<TRIPOS>BOND
     1     4     1   1
     2     1     3  ar
     3     1     2  ar
     4     4    14   1
     5     4     5   2
     6     5     6   1
     7     6     8   1
     8     6     7   1
     9     8    13   1
    10     8     9   1
    11     9    10  am
    12    10    12   1
    13    10    11   2
    14    13    15   1
    15    13    14   1
    16    15    17   1
    17    15    16   1
    18    17    19   1
    19    17    18   1
    20    19    20   1
    21     5    21   1
    22     6    22   1
    23     7    23   1
    24     7    24   1
    25     7    25   1
    26     8    26   1
    27     9    27   1
    28    12    28   1
    29    12    29   1
    30    12    30   1
    31    13    31   1
    32    15    32   1
    33    16    33   1
    34    17    34   1
    35    18    35   1
    36    19    36   1
    37    19    37   1
    38    20    38   1
@<TRIPOS>SUBSTRUCTURE
     1  MOL      1

