@<TRIPOS>MOLECULE
1f8c_ligand_016
    38    38
SMALL
GAST_HUCK
****
This file was generated by PARSER (from files_GN.cpp)

@<TRIPOS>ATOM
      1 C1         24.1966   20.2007   64.9270 C.2         1 MOL       0.0810
      2 O1A        23.0202   19.7881   65.4784 O.co2       1 MOL      -0.5623
      3 O1B        24.6999   21.4096   65.2927 O.co2       1 MOL      -0.5623
      4 C2         25.1057   19.2828   64.4954 C.2         1 MOL       0.1116
      5 C3         25.4263   19.1708   63.1860 C.2         1 MOL      -0.0085
      6 C4         26.4086   18.2039   62.7178 C.3         1 MOL       0.0210
      7 N4         25.8441   17.4483   61.5876 N.4         1 MOL       0.2321
      8 C5         26.9139   17.2311   63.8288 C.3         1 MOL       0.1228
      9 N5         28.1528   16.6582   63.4138 N.am        1 MOL      -0.2741
     10 C10        28.3539   15.4019   63.0521 C.2         1 MOL       0.1735
     11 O10        27.4525   14.5689   63.0526 O.2         1 MOL      -0.3974
     12 C11        29.6807   15.0127   62.6217 C.3         1 MOL       0.0257
     13 C6         27.0064   18.0122   65.1755 C.3         1 MOL       0.1349
     14 O6         25.6592   18.4978   65.4432 O.3         1 MOL      -0.3186
     15 C7         27.5235   17.2025   66.4217 C.3         1 MOL       0.1156
     16 O7         26.6769   17.4404   67.5505 O.3         1 MOL      -0.3861
     17 C8         28.9781   17.4846   66.9361 C.3         1 MOL       0.1068
     18 O8         29.3679   18.8489   66.7216 O.3         1 MOL      -0.3869
     19 C9         30.0828   16.5523   66.3693 C.3         1 MOL       0.0727
     20 O9         29.8845   15.1995   66.8043 O.3         1 MOL      -0.3924
     21 H1         25.0417   19.8116   62.5196 H           1 MOL       0.0510
     22 H2         27.2500   18.7844   62.3339 H           1 MOL       0.0996
     23 H3         25.4401   18.0914   60.8998 H           1 MOL       0.2008
     24 H4         25.1185   16.8168   61.9166 H           1 MOL       0.2008
     25 H5         26.5823   16.9055   61.1413 H           1 MOL       0.2008
     26 H6         26.1456   16.4589   63.9862 H           1 MOL       0.0664
     27 H7         28.9067   17.2637   63.3264 H           1 MOL       0.1859
     28 H8         29.7168   13.9435   62.3860 H           1 MOL       0.0467
     29 H9         30.4002   15.2091   63.4191 H           1 MOL       0.0467
     30 H10        29.9584   15.5798   61.7331 H           1 MOL       0.0467
     31 H11        27.6524   18.8763   65.0465 H           1 MOL       0.0698
     32 H12        27.4541   16.1336   66.2202 H           1 MOL       0.0650
     33 H13        26.0363   16.6964   67.5337 H           1 MOL       0.2100
     34 H14        28.9956   17.3489   68.0296 H           1 MOL       0.0643
     35 H15        29.7364   18.8675   65.8062 H           1 MOL       0.2100
     36 H16        31.0747   16.8818   66.7295 H           1 MOL       0.0584
     37 H17        30.0896   16.5837   65.2803 H           1 MOL       0.0584
     38 H18        29.9348   15.2482   67.7893 H           1 MOL       0.2095
@<TRIPOS>BOND
     1     4     1   1
     2     1     3  ar
     3     1     2  ar
     4     4    14   1
     5     4     5   2
     6     5     6   1
     7     6     8   1
     8     6     7   1
     9     8    13   1
    10     8     9   1
    11     9    10  am
    12    10    12   1
    13    10    11   2
    14    13    15   1
    15    13    14   1
    16    15    17   1
    17    15    16   1
    18    17    19   1
    19    17    18   1
    20    19    20   1
    21     5    21   1
    22     6    22   1
    23     7    23   1
    24     7    24   1
    25     7    25   1
    26     8    26   1
    27     9    27   1
    28    12    28   1
    29    12    29   1
    30    12    30   1
    31    13    31   1
    32    15    32   1
    33    16    33   1
    34    17    34   1
    35    18    35   1
    36    19    36   1
    37    19    37   1
    38    20    38   1
@<TRIPOS>SUBSTRUCTURE
     1  MOL      1

