@<TRIPOS>MOLECULE
1f8c_ligand_047
    38    38
SMALL
GAST_HUCK
****
This file was generated by PARSER (from files_GN.cpp)

@<TRIPOS>ATOM
      1 C1         23.5385   20.1542   65.2167 C.2         1 MOL       0.0810
      2 O1A        22.2934   20.1134   64.6874 O.co2       1 MOL      -0.5623
      3 O1B        24.4201   21.0492   64.7073 O.co2       1 MOL      -0.5623
      4 C2         23.6646   19.7880   66.5301 C.2         1 MOL       0.1116
      5 C3         24.0783   18.5404   66.8395 C.2         1 MOL      -0.0085
      6 C4         24.1692   18.0847   68.2161 C.3         1 MOL       0.0210
      7 N4         23.6435   16.7134   68.3047 N.4         1 MOL       0.2321
      8 C5         23.4299   18.9992   69.2434 C.3         1 MOL       0.1228
      9 N5         23.9472   18.7593   70.5602 N.am        1 MOL      -0.2741
     10 C10        23.2555   18.6501   71.6883 C.2         1 MOL       0.1735
     11 O10        22.0295   18.7626   71.7103 O.2         1 MOL      -0.3974
     12 C11        23.9730   18.5164   72.9326 C.3         1 MOL       0.0257
     13 C6         23.6128   20.4977   68.8298 C.3         1 MOL       0.1349
     14 O6         23.1987   20.6582   67.4503 O.3         1 MOL      -0.3186
     15 C7         22.7966   21.4781   69.7384 C.3         1 MOL       0.1156
     16 O7         21.4028   21.2032   69.5696 O.3         1 MOL      -0.3861
     17 C8         23.0800   23.0228   69.6415 C.3         1 MOL       0.1068
     18 O8         21.8782   23.7564   69.3959 O.3         1 MOL      -0.3869
     19 C9         24.1454   23.5190   68.6308 C.3         1 MOL       0.0727
     20 O9         24.4525   24.8907   68.8714 O.3         1 MOL      -0.3924
     21 H1         24.4131   17.9351   66.1219 H           1 MOL       0.0510
     22 H2         25.2368   18.0462   68.4576 H           1 MOL       0.0996
     23 H3         24.0890   16.1341   67.5935 H           1 MOL       0.2008
     24 H4         22.6339   16.7228   68.1531 H           1 MOL       0.2008
     25 H5         23.8449   16.3302   69.2293 H           1 MOL       0.2008
     26 H6         22.3621   18.7635   69.1852 H           1 MOL       0.0664
     27 H7         24.9163   18.7425   70.6481 H           1 MOL       0.1859
     28 H8         23.3029   18.5898   73.7967 H           1 MOL       0.0467
     29 H9         24.7258   19.3090   73.0177 H           1 MOL       0.0467
     30 H10        24.4755   17.5436   72.9641 H           1 MOL       0.0467
     31 H11        24.6779   20.7378   68.9175 H           1 MOL       0.0698
     32 H12        23.0112   21.1995   70.7739 H           1 MOL       0.0650
     33 H13        21.2717   21.1052   68.6022 H           1 MOL       0.2100
     34 H14        23.4196   23.3585   70.6277 H           1 MOL       0.0643
     35 H15        21.5039   23.3608   68.5819 H           1 MOL       0.2100
     36 H16        23.7846   23.4065   67.6068 H           1 MOL       0.0584
     37 H17        25.0720   22.9552   68.7482 H           1 MOL       0.0584
     38 H18        23.6847   25.3954   68.5257 H           1 MOL       0.2095
@<TRIPOS>BOND
     1     4     1   1
     2     1     3  ar
     3     1     2  ar
     4     4    14   1
     5     4     5   2
     6     5     6   1
     7     6     8   1
     8     6     7   1
     9     8    13   1
    10     8     9   1
    11     9    10  am
    12    10    12   1
    13    10    11   2
    14    13    15   1
    15    13    14   1
    16    15    17   1
    17    15    16   1
    18    17    19   1
    19    17    18   1
    20    19    20   1
    21     5    21   1
    22     6    22   1
    23     7    23   1
    24     7    24   1
    25     7    25   1
    26     8    26   1
    27     9    27   1
    28    12    28   1
    29    12    29   1
    30    12    30   1
    31    13    31   1
    32    15    32   1
    33    16    33   1
    34    17    34   1
    35    18    35   1
    36    19    36   1
    37    19    37   1
    38    20    38   1
@<TRIPOS>SUBSTRUCTURE
     1  MOL      1

