@<TRIPOS>MOLECULE
1f8c_ligand_058
    38    38
SMALL
GAST_HUCK
****
This file was generated by PARSER (from files_GN.cpp)

@<TRIPOS>ATOM
      1 C1         23.8070   18.7400   65.6687 C.2         1 MOL       0.0810
      2 O1A        23.5523   17.8556   64.6739 O.co2       1 MOL      -0.5623
      3 O1B        22.8226   19.5981   66.0026 O.co2       1 MOL      -0.5623
      4 C2         25.0246   18.8160   66.3093 C.2         1 MOL       0.1116
      5 C3         26.0911   18.0621   65.9842 C.2         1 MOL      -0.0085
      6 C4         27.3239   18.1965   66.7482 C.3         1 MOL       0.0210
      7 N4         27.1734   17.3692   67.9598 N.4         1 MOL       0.2321
      8 C5         27.6228   19.6897   67.1198 C.3         1 MOL       0.1228
      9 N5         28.5225   20.3247   66.1978 N.am        1 MOL      -0.2741
     10 C10        28.3120   20.6516   64.9313 C.2         1 MOL       0.1735
     11 O10        27.2445   20.4476   64.3638 O.2         1 MOL      -0.3974
     12 C11        29.3855   21.2822   64.1941 C.3         1 MOL       0.0257
     13 C6         26.2952   20.5191   67.3399 C.3         1 MOL       0.1349
     14 O6         25.1272   19.6572   67.3608 O.3         1 MOL      -0.3186
     15 C7         26.2869   21.3752   68.6457 C.3         1 MOL       0.1156
     16 O7         26.5120   20.5265   69.7744 O.3         1 MOL      -0.3861
     17 C8         24.9569   22.1692   68.8695 C.3         1 MOL       0.1068
     18 O8         24.7049   23.0479   67.7677 O.3         1 MOL      -0.3869
     19 C9         24.9032   22.9661   70.2130 C.3         1 MOL       0.0727
     20 O9         24.7766   24.3787   70.0127 O.3         1 MOL      -0.3924
     21 H1         26.0728   17.4384   65.2037 H           1 MOL       0.0510
     22 H2         28.1576   17.7705   66.1810 H           1 MOL       0.0996
     23 H3         26.8466   16.4338   67.7041 H           1 MOL       0.2008
     24 H4         26.4885   17.8032   68.5854 H           1 MOL       0.2008
     25 H5         28.0713   17.2950   68.4412 H           1 MOL       0.2008
     26 H6         28.1830   19.6758   68.0526 H           1 MOL       0.0664
     27 H7         29.4100   20.5289   66.5385 H           1 MOL       0.1859
     28 H8         29.0792   21.5566   63.1748 H           1 MOL       0.0467
     29 H9         30.2429   20.6011   64.1240 H           1 MOL       0.0467
     30 H10        29.7027   22.1933   64.7129 H           1 MOL       0.0467
     31 H11        26.1677   21.2147   66.5016 H           1 MOL       0.0698
     32 H12        27.1021   22.1003   68.6000 H           1 MOL       0.0650
     33 H13        25.7540   19.9033   69.7840 H           1 MOL       0.2100
     34 H14        24.1257   21.4567   68.8869 H           1 MOL       0.0643
     35 H15        25.4893   23.6530   67.7238 H           1 MOL       0.2100
     36 H16        25.8038   22.7895   70.8138 H           1 MOL       0.0584
     37 H17        24.0385   22.6285   70.8133 H           1 MOL       0.0584
     38 H18        23.8365   24.5057   69.7450 H           1 MOL       0.2095
@<TRIPOS>BOND
     1     4     1   1
     2     1     3  ar
     3     1     2  ar
     4     4    14   1
     5     4     5   2
     6     5     6   1
     7     6     8   1
     8     6     7   1
     9     8    13   1
    10     8     9   1
    11     9    10  am
    12    10    12   1
    13    10    11   2
    14    13    15   1
    15    13    14   1
    16    15    17   1
    17    15    16   1
    18    17    19   1
    19    17    18   1
    20    19    20   1
    21     5    21   1
    22     6    22   1
    23     7    23   1
    24     7    24   1
    25     7    25   1
    26     8    26   1
    27     9    27   1
    28    12    28   1
    29    12    29   1
    30    12    30   1
    31    13    31   1
    32    15    32   1
    33    16    33   1
    34    17    34   1
    35    18    35   1
    36    19    36   1
    37    19    37   1
    38    20    38   1
@<TRIPOS>SUBSTRUCTURE
     1  MOL      1

