@<TRIPOS>MOLECULE
1f8c_ligand_067
    38    38
SMALL
GAST_HUCK
****
This file was generated by PARSER (from files_GN.cpp)

@<TRIPOS>ATOM
      1 C1         24.3615   17.6547   64.5620 C.2         1 MOL       0.0810
      2 O1A        25.2039   17.4865   65.6075 O.co2       1 MOL      -0.5623
      3 O1B        23.0836   18.0297   64.8394 O.co2       1 MOL      -0.5623
      4 C2         24.6558   17.0640   63.3653 C.2         1 MOL       0.1116
      5 C3         25.0702   17.7817   62.3046 C.2         1 MOL      -0.0085
      6 C4         25.4621   17.0988   61.0820 C.3         1 MOL       0.0210
      7 N4         24.2541   16.9169   60.2638 N.4         1 MOL       0.2321
      8 C5         26.2134   15.7428   61.3583 C.3         1 MOL       0.1228
      9 N5         27.6372   16.0113   61.3249 N.am        1 MOL      -0.2741
     10 C10        28.6548   15.3354   61.8477 C.2         1 MOL       0.1735
     11 O10        28.4973   14.3309   62.5407 O.2         1 MOL      -0.3974
     12 C11        29.9884   15.8471   61.6406 C.3         1 MOL       0.0257
     13 C6         25.6881   15.0458   62.6851 C.3         1 MOL       0.1349
     14 O6         24.5289   15.7159   63.2763 O.3         1 MOL      -0.3186
     15 C7         25.4050   13.5019   62.5529 C.3         1 MOL       0.1156
     16 O7         26.1894   12.8982   61.5222 O.3         1 MOL      -0.3861
     17 C8         23.9142   13.0284   62.4628 C.3         1 MOL       0.1068
     18 O8         23.9110   11.6529   62.0563 O.3         1 MOL      -0.3869
     19 C9         22.9624   13.8403   61.5442 C.3         1 MOL       0.0727
     20 O9         23.5235   14.1844   60.2786 O.3         1 MOL      -0.3924
     21 H1         25.2045   18.7741   62.3785 H           1 MOL       0.0510
     22 H2         26.0962   17.7773   60.4945 H           1 MOL       0.0996
     23 H3         23.9040   17.8474   60.0222 H           1 MOL       0.2008
     24 H4         23.5370   16.4102   60.7880 H           1 MOL       0.2008
     25 H5         24.4822   16.4115   59.4033 H           1 MOL       0.2008
     26 H6         26.0191   15.1080   60.4867 H           1 MOL       0.0664
     27 H7         27.8995   16.7796   60.7700 H           1 MOL       0.1859
     28 H8         30.6992   15.3794   62.3335 H           1 MOL       0.0467
     29 H9         30.0065   16.9308   61.8072 H           1 MOL       0.0467
     30 H10        30.2901   15.6248   60.6140 H           1 MOL       0.0467
     31 H11        26.4679   15.1625   63.4424 H           1 MOL       0.0698
     32 H12        25.7941   13.0483   63.4683 H           1 MOL       0.0650
     33 H13        25.5458   12.4416   60.9314 H           1 MOL       0.2100
     34 H14        23.4882   13.0567   63.4749 H           1 MOL       0.0643
     35 H15        22.9745   11.4401   61.8564 H           1 MOL       0.2100
     36 H16        22.6837   14.7659   62.0434 H           1 MOL       0.0584
     37 H17        22.0429   13.2715   61.3712 H           1 MOL       0.0584
     38 H18        23.7413   13.3263   59.8470 H           1 MOL       0.2095
@<TRIPOS>BOND
     1     4     1   1
     2     1     3  ar
     3     1     2  ar
     4     4    14   1
     5     4     5   2
     6     5     6   1
     7     6     8   1
     8     6     7   1
     9     8    13   1
    10     8     9   1
    11     9    10  am
    12    10    12   1
    13    10    11   2
    14    13    15   1
    15    13    14   1
    16    15    17   1
    17    15    16   1
    18    17    19   1
    19    17    18   1
    20    19    20   1
    21     5    21   1
    22     6    22   1
    23     7    23   1
    24     7    24   1
    25     7    25   1
    26     8    26   1
    27     9    27   1
    28    12    28   1
    29    12    29   1
    30    12    30   1
    31    13    31   1
    32    15    32   1
    33    16    33   1
    34    17    34   1
    35    18    35   1
    36    19    36   1
    37    19    37   1
    38    20    38   1
@<TRIPOS>SUBSTRUCTURE
     1  MOL      1

