@<TRIPOS>MOLECULE
1f8c_ligand_031
    38    38
SMALL
GAST_HUCK
****
This file was generated by PARSER (from files_GN.cpp)

@<TRIPOS>ATOM
      1 C1         28.2470   14.3782   60.8833 C.2         1 MOL       0.0810
      2 O1A        28.5338   13.5062   59.8806 O.co2       1 MOL      -0.5623
      3 O1B        28.0552   13.8616   62.1346 O.co2       1 MOL      -0.5623
      4 C2         27.8090   15.6348   60.6154 C.2         1 MOL       0.1116
      5 C3         26.7439   15.8937   59.8424 C.2         1 MOL      -0.0085
      6 C4         26.2812   17.2602   59.6924 C.3         1 MOL       0.0210
      7 N4         27.0759   17.8735   58.6061 N.4         1 MOL       0.2321
      8 C5         26.4271   18.0577   61.0268 C.3         1 MOL       0.1228
      9 N5         25.2710   17.9590   61.8924 N.am        1 MOL      -0.2741
     10 C10        24.7642   16.9083   62.5111 C.2         1 MOL       0.1735
     11 O10        25.2854   15.8000   62.4588 O.2         1 MOL      -0.3974
     12 C11        23.5482   17.0852   63.2643 C.3         1 MOL       0.0257
     13 C6         27.8008   17.7555   61.7513 C.3         1 MOL       0.1349
     14 O6         28.5275   16.6664   61.1264 O.3         1 MOL      -0.3186
     15 C7         28.7636   19.0098   61.8423 C.3         1 MOL       0.1156
     16 O7         30.1284   18.6148   61.7732 O.3         1 MOL      -0.3861
     17 C8         28.5461   19.8803   63.1314 C.3         1 MOL       0.1068
     18 O8         27.1815   20.0363   63.4900 O.3         1 MOL      -0.3869
     19 C9         29.1348   21.3228   63.0438 C.3         1 MOL       0.0727
     20 O9         30.4825   21.3583   62.6084 O.3         1 MOL      -0.3924
     21 H1         26.1857   15.1435   59.4776 H           1 MOL       0.0510
     22 H2         25.2486   17.2702   59.3649 H           1 MOL       0.0996
     23 H3         26.9255   17.3596   57.7388 H           1 MOL       0.2008
     24 H4         28.0668   17.8433   58.8513 H           1 MOL       0.2008
     25 H5         26.7873   18.8462   58.4828 H           1 MOL       0.2008
     26 H6         26.4187   19.1149   60.7434 H           1 MOL       0.0664
     27 H7         24.8007   18.8004   62.0215 H           1 MOL       0.1859
     28 H8         23.1966   16.1283   63.6623 H           1 MOL       0.0467
     29 H9         22.7643   17.5020   62.6235 H           1 MOL       0.0467
     30 H10        23.7425   17.7616   64.0991 H           1 MOL       0.0467
     31 H11        27.6143   17.4009   62.7645 H           1 MOL       0.0698
     32 H12        28.5966   19.6309   60.9567 H           1 MOL       0.0650
     33 H13        30.5700   19.2957   61.2047 H           1 MOL       0.2100
     34 H14        29.0285   19.3722   63.9668 H           1 MOL       0.0643
     35 H15        26.9009   19.1993   63.9448 H           1 MOL       0.2100
     36 H16        29.0961   21.7580   64.0384 H           1 MOL       0.0584
     37 H17        28.5235   21.9294   62.3749 H           1 MOL       0.0584
     38 H18        30.4319   21.4317   61.6289 H           1 MOL       0.2095
@<TRIPOS>BOND
     1     4     1   1
     2     1     3  ar
     3     1     2  ar
     4     4    14   1
     5     4     5   2
     6     5     6   1
     7     6     8   1
     8     6     7   1
     9     8    13   1
    10     8     9   1
    11     9    10  am
    12    10    12   1
    13    10    11   2
    14    13    15   1
    15    13    14   1
    16    15    17   1
    17    15    16   1
    18    17    19   1
    19    17    18   1
    20    19    20   1
    21     5    21   1
    22     6    22   1
    23     7    23   1
    24     7    24   1
    25     7    25   1
    26     8    26   1
    27     9    27   1
    28    12    28   1
    29    12    29   1
    30    12    30   1
    31    13    31   1
    32    15    32   1
    33    16    33   1
    34    17    34   1
    35    18    35   1
    36    19    36   1
    37    19    37   1
    38    20    38   1
@<TRIPOS>SUBSTRUCTURE
     1  MOL      1

