@<TRIPOS>MOLECULE
1f8c_ligand_037
    38    38
SMALL
GAST_HUCK
****
This file was generated by PARSER (from files_GN.cpp)

@<TRIPOS>ATOM
      1 C1         28.1683   14.9345   61.2279 C.2         1 MOL       0.0810
      2 O1A        28.0202   14.0520   62.2412 O.co2       1 MOL      -0.5623
      3 O1B        28.6089   14.4410   60.0457 O.co2       1 MOL      -0.5623
      4 C2         27.7513   16.2542   61.3272 C.2         1 MOL       0.1116
      5 C3         27.3101   16.8221   62.4674 C.2         1 MOL      -0.0085
      6 C4         26.7188   18.1520   62.4428 C.3         1 MOL       0.0210
      7 N4         25.2750   17.9729   62.1838 N.4         1 MOL       0.2321
      8 C5         27.3883   19.1133   61.3875 C.3         1 MOL       0.1228
      9 N5         28.2814   20.0860   61.9498 N.am        1 MOL      -0.2741
     10 C10        29.1099   19.9426   62.9831 C.2         1 MOL       0.1735
     11 O10        29.1388   18.9099   63.6564 O.2         1 MOL      -0.3974
     12 C11        29.9492   21.0495   63.3589 C.3         1 MOL       0.0257
     13 C6         28.0924   18.3484   60.2006 C.3         1 MOL       0.1349
     14 O6         27.6883   16.9583   60.1688 O.3         1 MOL      -0.3186
     15 C7         27.9473   18.9854   58.7579 C.3         1 MOL       0.1156
     16 O7         27.0874   20.1236   58.6968 O.3         1 MOL      -0.3861
     17 C8         27.5427   18.0068   57.6042 C.3         1 MOL       0.1068
     18 O8         27.5990   18.7026   56.3555 O.3         1 MOL      -0.3869
     19 C9         26.1422   17.3402   57.6998 C.3         1 MOL       0.0727
     20 O9         25.7551   17.0647   59.0436 O.3         1 MOL      -0.3924
     21 H1         27.3288   16.3169   63.3279 H           1 MOL       0.0510
     22 H2         26.7879   18.5940   63.4411 H           1 MOL       0.0996
     23 H3         24.8878   17.3098   62.8585 H           1 MOL       0.2008
     24 H4         25.1357   17.6102   61.2374 H           1 MOL       0.2008
     25 H5         24.7812   18.8651   62.2742 H           1 MOL       0.2008
     26 H6         26.5668   19.7045   60.9826 H           1 MOL       0.0664
     27 H7         28.3657   20.9260   61.4669 H           1 MOL       0.1859
     28 H8         30.5411   20.8247   64.2515 H           1 MOL       0.0467
     29 H9         29.3328   21.9292   63.5705 H           1 MOL       0.0467
     30 H10        30.6369   21.2888   62.5420 H           1 MOL       0.0467
     31 H11        29.1657   18.3109   60.4200 H           1 MOL       0.0698
     32 H12        28.9332   19.3743   58.4861 H           1 MOL       0.0650
     33 H13        27.5323   20.8222   59.2215 H           1 MOL       0.2100
     34 H14        28.2936   17.2108   57.5535 H           1 MOL       0.0643
     35 H15        27.1997   18.0853   55.7063 H           1 MOL       0.2100
     36 H16        26.1731   16.3966   57.1452 H           1 MOL       0.0584
     37 H17        25.3819   17.9808   57.2462 H           1 MOL       0.0584
     38 H18        24.9860   16.4440   58.9488 H           1 MOL       0.2095
@<TRIPOS>BOND
     1     4     1   1
     2     1     3  ar
     3     1     2  ar
     4     4    14   1
     5     4     5   2
     6     5     6   1
     7     6     8   1
     8     6     7   1
     9     8    13   1
    10     8     9   1
    11     9    10  am
    12    10    12   1
    13    10    11   2
    14    13    15   1
    15    13    14   1
    16    15    17   1
    17    15    16   1
    18    17    19   1
    19    17    18   1
    20    19    20   1
    21     5    21   1
    22     6    22   1
    23     7    23   1
    24     7    24   1
    25     7    25   1
    26     8    26   1
    27     9    27   1
    28    12    28   1
    29    12    29   1
    30    12    30   1
    31    13    31   1
    32    15    32   1
    33    16    33   1
    34    17    34   1
    35    18    35   1
    36    19    36   1
    37    19    37   1
    38    20    38   1
@<TRIPOS>SUBSTRUCTURE
     1  MOL      1

