@<TRIPOS>MOLECULE
1f8c_ligand_064
    38    38
SMALL
GAST_HUCK
****
This file was generated by PARSER (from files_GN.cpp)

@<TRIPOS>ATOM
      1 C1         23.6715   19.3089   64.5485 C.2         1 MOL       0.0810
      2 O1A        22.5193   19.9516   64.8564 O.co2       1 MOL      -0.5623
      3 O1B        23.5730   18.1131   63.9168 O.co2       1 MOL      -0.5623
      4 C2         24.8872   19.8807   64.8772 C.2         1 MOL       0.1116
      5 C3         26.0707   19.2514   64.7413 C.2         1 MOL      -0.0085
      6 C4         27.2866   19.9112   65.1931 C.3         1 MOL       0.0210
      7 N4         28.4195   18.9660   65.2606 N.4         1 MOL       0.2321
      8 C5         27.0225   20.5828   66.5786 C.3         1 MOL       0.1228
      9 N5         28.1538   21.2893   67.1090 N.am        1 MOL      -0.2741
     10 C10        28.7848   22.3302   66.5854 C.2         1 MOL       0.1735
     11 O10        28.4205   22.8760   65.5512 O.2         1 MOL      -0.3974
     12 C11        29.9819   22.8020   67.2378 C.3         1 MOL       0.0257
     13 C6         25.6797   21.4285   66.5438 C.3         1 MOL       0.1349
     14 O6         24.8668   21.1353   65.3695 O.3         1 MOL      -0.3186
     15 C7         24.8247   21.3228   67.8661 C.3         1 MOL       0.1156
     16 O7         23.4457   21.0764   67.5762 O.3         1 MOL      -0.3861
     17 C8         24.9590   22.5666   68.8097 C.3         1 MOL       0.1068
     18 O8         25.0323   22.1333   70.1774 O.3         1 MOL      -0.3869
     19 C9         23.7879   23.5837   68.7161 C.3         1 MOL       0.0727
     20 O9         23.9083   24.4509   67.5940 O.3         1 MOL      -0.3924
     21 H1         26.1138   18.3176   64.4034 H           1 MOL       0.0510
     22 H2         27.5452   20.6737   64.4586 H           1 MOL       0.0996
     23 H3         28.5750   18.5442   64.3375 H           1 MOL       0.2008
     24 H4         28.2084   18.2248   65.9364 H           1 MOL       0.2008
     25 H5         29.2677   19.4585   65.5523 H           1 MOL       0.2008
     26 H6         26.8775   19.7399   67.2664 H           1 MOL       0.0664
     27 H7         28.5219   20.9317   67.9284 H           1 MOL       0.1859
     28 H8         30.4638   23.5935   66.6594 H           1 MOL       0.0467
     29 H9         30.6973   21.9800   67.3446 H           1 MOL       0.0467
     30 H10        29.7391   23.1938   68.2309 H           1 MOL       0.0467
     31 H11        25.9451   22.4780   66.3959 H           1 MOL       0.0698
     32 H12        25.1454   20.4371   68.4267 H           1 MOL       0.0650
     33 H13        23.4135   20.1364   67.2895 H           1 MOL       0.2100
     34 H14        25.9056   23.0941   68.6002 H           1 MOL       0.0643
     35 H15        25.9075   21.6852   70.2487 H           1 MOL       0.2100
     36 H16        23.7524   24.1860   69.6266 H           1 MOL       0.0584
     37 H17        22.8371   23.0503   68.6348 H           1 MOL       0.0584
     38 H18        24.8523   24.7123   67.5770 H           1 MOL       0.2095
@<TRIPOS>BOND
     1     4     1   1
     2     1     3  ar
     3     1     2  ar
     4     4    14   1
     5     4     5   2
     6     5     6   1
     7     6     8   1
     8     6     7   1
     9     8    13   1
    10     8     9   1
    11     9    10  am
    12    10    12   1
    13    10    11   2
    14    13    15   1
    15    13    14   1
    16    15    17   1
    17    15    16   1
    18    17    19   1
    19    17    18   1
    20    19    20   1
    21     5    21   1
    22     6    22   1
    23     7    23   1
    24     7    24   1
    25     7    25   1
    26     8    26   1
    27     9    27   1
    28    12    28   1
    29    12    29   1
    30    12    30   1
    31    13    31   1
    32    15    32   1
    33    16    33   1
    34    17    34   1
    35    18    35   1
    36    19    36   1
    37    19    37   1
    38    20    38   1
@<TRIPOS>SUBSTRUCTURE
     1  MOL      1

