@<TRIPOS>MOLECULE
1f8c_ligand_022
    38    38
SMALL
GAST_HUCK
****
This file was generated by PARSER (from files_GN.cpp)

@<TRIPOS>ATOM
      1 C1         28.1071   17.1297   64.8698 C.2         1 MOL       0.0810
      2 O1A        27.2057   17.7502   65.6640 O.co2       1 MOL      -0.5623
      3 O1B        28.6007   15.9483   65.3189 O.co2       1 MOL      -0.5623
      4 C2         28.4756   17.6862   63.6544 C.2         1 MOL       0.1116
      5 C3         29.5702   17.2931   62.9681 C.2         1 MOL      -0.0085
      6 C4         29.9760   17.9021   61.7087 C.3         1 MOL       0.0210
      7 N4         31.3177   18.4892   61.8740 N.4         1 MOL       0.2321
      8 C5         28.9515   18.9470   61.1444 C.3         1 MOL       0.1228
      9 N5         28.0051   18.2436   60.3114 N.am        1 MOL      -0.2741
     10 C10        27.9300   18.2613   58.9866 C.2         1 MOL       0.1735
     11 O10        28.6841   18.9380   58.2979 O.2         1 MOL      -0.3974
     12 C11        26.9484   17.4174   58.3412 C.3         1 MOL       0.0257
     13 C6         28.1790   19.6703   62.2962 C.3         1 MOL       0.1349
     14 O6         27.6475   18.6390   63.1643 O.3         1 MOL      -0.3186
     15 C7         28.9146   20.8557   63.0463 C.3         1 MOL       0.1156
     16 O7         30.2853   20.9899   62.6764 O.3         1 MOL      -0.3861
     17 C8         28.8092   20.8189   64.6067 C.3         1 MOL       0.1068
     18 O8         27.4480   21.0140   64.9886 O.3         1 MOL      -0.3869
     19 C9         29.6863   21.8514   65.3607 C.3         1 MOL       0.0727
     20 O9         29.1443   23.1680   65.2899 O.3         1 MOL      -0.3924
     21 H1         30.1545   16.5784   63.3389 H           1 MOL       0.0510
     22 H2         30.0994   17.0891   60.9831 H           1 MOL       0.0996
     23 H3         32.0220   17.7457   61.8499 H           1 MOL       0.2008
     24 H4         31.3697   18.9853   62.7703 H           1 MOL       0.2008
     25 H5         31.4998   19.1539   61.1094 H           1 MOL       0.2008
     26 H6         29.4793   19.6916   60.5460 H           1 MOL       0.0664
     27 H7         27.3795   17.6566   60.7713 H           1 MOL       0.1859
     28 H8         26.9952   17.5070   57.2492 H           1 MOL       0.0467
     29 H9         25.9410   17.6992   58.6673 H           1 MOL       0.0467
     30 H10        27.1256   16.3754   58.6099 H           1 MOL       0.0467
     31 H11        27.2843   20.1215   61.8437 H           1 MOL       0.0698
     32 H12        28.4529   21.7901   62.7154 H           1 MOL       0.0650
     33 H13        30.2788   21.2155   61.7193 H           1 MOL       0.2100
     34 H14        29.1271   19.8408   64.9635 H           1 MOL       0.0643
     35 H15        27.3995   20.7485   65.9348 H           1 MOL       0.2100
     36 H16        30.7012   21.8606   64.9550 H           1 MOL       0.0584
     37 H17        29.7514   21.5729   66.4129 H           1 MOL       0.0584
     38 H18        29.5837   23.6618   66.0325 H           1 MOL       0.2095
@<TRIPOS>BOND
     1     4     1   1
     2     1     3  ar
     3     1     2  ar
     4     4    14   1
     5     4     5   2
     6     5     6   1
     7     6     8   1
     8     6     7   1
     9     8    13   1
    10     8     9   1
    11     9    10  am
    12    10    12   1
    13    10    11   2
    14    13    15   1
    15    13    14   1
    16    15    17   1
    17    15    16   1
    18    17    19   1
    19    17    18   1
    20    19    20   1
    21     5    21   1
    22     6    22   1
    23     7    23   1
    24     7    24   1
    25     7    25   1
    26     8    26   1
    27     9    27   1
    28    12    28   1
    29    12    29   1
    30    12    30   1
    31    13    31   1
    32    15    32   1
    33    16    33   1
    34    17    34   1
    35    18    35   1
    36    19    36   1
    37    19    37   1
    38    20    38   1
@<TRIPOS>SUBSTRUCTURE
     1  MOL      1

