@<TRIPOS>MOLECULE
1f8c_ligand_071
    38    38
SMALL
GAST_HUCK
****
This file was generated by PARSER (from files_GN.cpp)

@<TRIPOS>ATOM
      1 C1         30.0412   17.9075   62.7030 C.2         1 MOL       0.0810
      2 O1A        30.7199   16.7315   62.6479 O.co2       1 MOL      -0.5623
      3 O1B        30.7024   18.9849   63.2055 O.co2       1 MOL      -0.5623
      4 C2         28.7009   17.9547   62.3738 C.2         1 MOL       0.1116
      5 C3         28.1410   19.0009   61.7366 C.2         1 MOL      -0.0085
      6 C4         26.7338   18.9763   61.4133 C.3         1 MOL       0.0210
      7 N4         26.0196   19.4694   62.6083 N.4         1 MOL       0.2321
      8 C5         26.2170   17.5421   61.0151 C.3         1 MOL       0.1228
      9 N5         26.0733   17.3326   59.6002 N.am        1 MOL      -0.2741
     10 C10        26.9630   17.5534   58.6406 C.2         1 MOL       0.1735
     11 O10        28.0458   18.0849   58.8634 O.2         1 MOL      -0.3974
     12 C11        26.6323   17.1405   57.3015 C.3         1 MOL       0.0257
     13 C6         27.0675   16.3890   61.6827 C.3         1 MOL       0.1349
     14 O6         27.9165   16.9104   62.7287 O.3         1 MOL      -0.3186
     15 C7         26.1856   15.2310   62.2700 C.3         1 MOL       0.1156
     16 O7         26.9209   14.4947   63.2517 O.3         1 MOL      -0.3861
     17 C8         25.5802   14.2410   61.2193 C.3         1 MOL       0.1068
     18 O8         24.5519   13.4770   61.8538 O.3         1 MOL      -0.3869
     19 C9         26.5728   13.2417   60.5676 C.3         1 MOL       0.0727
     20 O9         27.7422   13.8433   60.0338 O.3         1 MOL      -0.3924
     21 H1         28.7051   19.7637   61.4161 H           1 MOL       0.0510
     22 H2         26.5274   19.6886   60.6169 H           1 MOL       0.0996
     23 H3         26.3687   20.4012   62.8605 H           1 MOL       0.2008
     24 H4         26.1713   18.8290   63.3963 H           1 MOL       0.2008
     25 H5         25.0150   19.5322   62.4170 H           1 MOL       0.2008
     26 H6         25.1846   17.4807   61.3889 H           1 MOL       0.0664
     27 H7         25.2429   16.9154   59.3118 H           1 MOL       0.1859
     28 H8         27.4105   17.4228   56.5857 H           1 MOL       0.0467
     29 H9         25.6939   17.6097   56.9946 H           1 MOL       0.0467
     30 H10        26.5134   16.0539   57.2688 H           1 MOL       0.0467
     31 H11        27.7351   15.9586   60.9400 H           1 MOL       0.0698
     32 H12        25.3585   15.7015   62.8186 H           1 MOL       0.0650
     33 H13        26.7584   14.9617   64.0954 H           1 MOL       0.2100
     34 H14        25.0897   14.8150   60.4281 H           1 MOL       0.0643
     35 H15        24.1800   12.9159   61.1422 H           1 MOL       0.2100
     36 H16        26.0677   12.7346   59.7424 H           1 MOL       0.0584
     37 H17        26.8701   12.4863   61.3002 H           1 MOL       0.0584
     38 H18        28.4006   13.8026   60.7617 H           1 MOL       0.2095
@<TRIPOS>BOND
     1     4     1   1
     2     1     3  ar
     3     1     2  ar
     4     4    14   1
     5     4     5   2
     6     5     6   1
     7     6     8   1
     8     6     7   1
     9     8    13   1
    10     8     9   1
    11     9    10  am
    12    10    12   1
    13    10    11   2
    14    13    15   1
    15    13    14   1
    16    15    17   1
    17    15    16   1
    18    17    19   1
    19    17    18   1
    20    19    20   1
    21     5    21   1
    22     6    22   1
    23     7    23   1
    24     7    24   1
    25     7    25   1
    26     8    26   1
    27     9    27   1
    28    12    28   1
    29    12    29   1
    30    12    30   1
    31    13    31   1
    32    15    32   1
    33    16    33   1
    34    17    34   1
    35    18    35   1
    36    19    36   1
    37    19    37   1
    38    20    38   1
@<TRIPOS>SUBSTRUCTURE
     1  MOL      1

