@<TRIPOS>MOLECULE
1f8c_ligand_030
    38    38
SMALL
GAST_HUCK
****
This file was generated by PARSER (from files_GN.cpp)

@<TRIPOS>ATOM
      1 C1         25.3574   20.9846   66.0375 C.2         1 MOL       0.0810
      2 O1A        26.7099   20.9270   65.9806 O.co2       1 MOL      -0.5623
      3 O1B        24.7226   21.2811   64.8797 O.co2       1 MOL      -0.5623
      4 C2         24.6508   20.6311   67.1792 C.2         1 MOL       0.1116
      5 C3         25.1617   20.8187   68.4135 C.2         1 MOL      -0.0085
      6 C4         24.3996   20.5709   69.6294 C.3         1 MOL       0.0210
      7 N4         25.1618   19.6095   70.4493 N.4         1 MOL       0.2321
      8 C5         22.9165   20.1031   69.3986 C.3         1 MOL       0.1228
      9 N5         21.9396   21.1398   69.5902 N.am        1 MOL      -0.2741
     10 C10        21.9240   22.3818   69.1279 C.2         1 MOL       0.1735
     11 O10        22.8408   22.8442   68.4623 O.2         1 MOL      -0.3974
     12 C11        20.8015   23.2232   69.4688 C.3         1 MOL       0.0257
     13 C6         22.7476   19.4019   68.0059 C.3         1 MOL       0.1349
     14 O6         23.3713   20.2402   67.0014 O.3         1 MOL      -0.3186
     15 C7         23.2392   17.9075   67.9661 C.3         1 MOL       0.1156
     16 O7         23.7508   17.6269   66.6597 O.3         1 MOL      -0.3861
     17 C8         22.1974   16.7984   68.3401 C.3         1 MOL       0.1068
     18 O8         21.5266   16.3304   67.1733 O.3         1 MOL      -0.3869
     19 C9         21.1242   17.1752   69.3952 C.3         1 MOL       0.0727
     20 O9         20.1529   16.1339   69.5106 O.3         1 MOL      -0.3924
     21 H1         26.0910   21.1599   68.5180 H           1 MOL       0.0510
     22 H2         24.3958   21.5004   70.2060 H           1 MOL       0.0996
     23 H3         26.0806   20.0027   70.6772 H           1 MOL       0.2008
     24 H4         25.2959   18.7317   69.9429 H           1 MOL       0.2008
     25 H5         24.6563   19.4216   71.3221 H           1 MOL       0.2008
     26 H6         22.6790   19.3788   70.1771 H           1 MOL       0.0664
     27 H7         21.1768   20.8915   70.1387 H           1 MOL       0.1859
     28 H8         20.9572   24.2520   69.1433 H           1 MOL       0.0467
     29 H9         20.6583   23.2270   70.5509 H           1 MOL       0.0467
     30 H10        19.8989   22.8383   68.9914 H           1 MOL       0.0467
     31 H11        21.6869   19.3981   67.7375 H           1 MOL       0.0698
     32 H12        24.0916   17.7953   68.6362 H           1 MOL       0.0650
     33 H13        24.0511   16.6945   66.6811 H           1 MOL       0.2100
     34 H14        22.7505   15.9424   68.7384 H           1 MOL       0.0643
     35 H15        22.2168   15.8509   66.6682 H           1 MOL       0.2100
     36 H16        20.6011   18.0880   69.1000 H           1 MOL       0.0584
     37 H17        21.5934   17.3322   70.3685 H           1 MOL       0.0584
     38 H18        19.6165   16.3666   70.2984 H           1 MOL       0.2095
@<TRIPOS>BOND
     1     4     1   1
     2     1     3  ar
     3     1     2  ar
     4     4    14   1
     5     4     5   2
     6     5     6   1
     7     6     8   1
     8     6     7   1
     9     8    13   1
    10     8     9   1
    11     9    10  am
    12    10    12   1
    13    10    11   2
    14    13    15   1
    15    13    14   1
    16    15    17   1
    17    15    16   1
    18    17    19   1
    19    17    18   1
    20    19    20   1
    21     5    21   1
    22     6    22   1
    23     7    23   1
    24     7    24   1
    25     7    25   1
    26     8    26   1
    27     9    27   1
    28    12    28   1
    29    12    29   1
    30    12    30   1
    31    13    31   1
    32    15    32   1
    33    16    33   1
    34    17    34   1
    35    18    35   1
    36    19    36   1
    37    19    37   1
    38    20    38   1
@<TRIPOS>SUBSTRUCTURE
     1  MOL      1

