@<TRIPOS>MOLECULE
1f8c_ligand_062
    38    38
SMALL
GAST_HUCK
****
This file was generated by PARSER (from files_GN.cpp)

@<TRIPOS>ATOM
      1 C1         28.2516   18.8060   66.5021 C.2         1 MOL       0.0810
      2 O1A        27.1079   18.7003   67.2343 O.co2       1 MOL      -0.5623
      3 O1B        29.4224   18.6642   67.1781 O.co2       1 MOL      -0.5623
      4 C2         28.1940   19.0608   65.1415 C.2         1 MOL       0.1116
      5 C3         29.2521   19.4675   64.4132 C.2         1 MOL      -0.0085
      6 C4         29.1674   19.6814   62.9739 C.3         1 MOL       0.0210
      7 N4         29.7618   20.9930   62.6672 N.4         1 MOL       0.2321
      8 C5         27.7257   19.5865   62.3770 C.3         1 MOL       0.1228
      9 N5         27.8130   19.2802   60.9745 N.am        1 MOL      -0.2741
     10 C10        27.4290   20.0267   59.9486 C.2         1 MOL       0.1735
     11 O10        26.8984   21.1186   60.0995 O.2         1 MOL      -0.3974
     12 C11        27.6797   19.5460   58.6015 C.3         1 MOL       0.0257
     13 C6         26.9229   18.5107   63.1787 C.3         1 MOL       0.1349
     14 O6         26.9775   18.9297   64.5657 O.3         1 MOL      -0.3186
     15 C7         25.4324   18.3333   62.7560 C.3         1 MOL       0.1156
     16 O7         24.6072   18.2170   63.9267 O.3         1 MOL      -0.3861
     17 C8         25.1439   17.0892   61.8449 C.3         1 MOL       0.1068
     18 O8         25.9002   17.1799   60.6317 O.3         1 MOL      -0.3869
     19 C9         23.6500   16.8253   61.4807 C.3         1 MOL       0.0727
     20 O9         22.7117   17.6138   62.2170 O.3         1 MOL      -0.3924
     21 H1         30.1461   19.5582   64.8511 H           1 MOL       0.0510
     22 H2         29.8006   18.9204   62.5116 H           1 MOL       0.0996
     23 H3         30.6854   21.0581   63.1008 H           1 MOL       0.2008
     24 H4         29.1627   21.7326   63.0417 H           1 MOL       0.2008
     25 H5         29.8589   21.1133   61.6576 H           1 MOL       0.2008
     26 H6         27.2216   20.5493   62.5359 H           1 MOL       0.0664
     27 H7         28.2328   18.4321   60.7513 H           1 MOL       0.1859
     28 H8         27.3428   20.2607   57.8447 H           1 MOL       0.0467
     29 H9         27.1566   18.6011   58.4354 H           1 MOL       0.0467
     30 H10        28.7504   19.3864   58.4608 H           1 MOL       0.0467
     31 H11        27.4323   17.5460   63.0987 H           1 MOL       0.0698
     32 H12        25.0938   19.2225   62.2290 H           1 MOL       0.0650
     33 H13        24.8825   17.3895   64.3721 H           1 MOL       0.2100
     34 H14        25.5287   16.2090   62.3644 H           1 MOL       0.0643
     35 H15        25.4763   17.8983   60.1166 H           1 MOL       0.2100
     36 H16        23.4185   15.7686   61.6642 H           1 MOL       0.0584
     37 H17        23.4637   17.0157   60.4208 H           1 MOL       0.0584
     38 H18        22.0524   16.9841   62.5705 H           1 MOL       0.2095
@<TRIPOS>BOND
     1     4     1   1
     2     1     3  ar
     3     1     2  ar
     4     4    14   1
     5     4     5   2
     6     5     6   1
     7     6     8   1
     8     6     7   1
     9     8    13   1
    10     8     9   1
    11     9    10  am
    12    10    12   1
    13    10    11   2
    14    13    15   1
    15    13    14   1
    16    15    17   1
    17    15    16   1
    18    17    19   1
    19    17    18   1
    20    19    20   1
    21     5    21   1
    22     6    22   1
    23     7    23   1
    24     7    24   1
    25     7    25   1
    26     8    26   1
    27     9    27   1
    28    12    28   1
    29    12    29   1
    30    12    30   1
    31    13    31   1
    32    15    32   1
    33    16    33   1
    34    17    34   1
    35    18    35   1
    36    19    36   1
    37    19    37   1
    38    20    38   1
@<TRIPOS>SUBSTRUCTURE
     1  MOL      1

