@<TRIPOS>MOLECULE
1f8c_ligand_056
    38    38
SMALL
GAST_HUCK
****
This file was generated by PARSER (from files_GN.cpp)

@<TRIPOS>ATOM
      1 C1         25.5820   20.0342   65.5746 C.2         1 MOL       0.0810
      2 O1A        26.3751   19.4674   64.6297 O.co2       1 MOL      -0.5623
      3 O1B        24.8684   21.1276   65.1999 O.co2       1 MOL      -0.5623
      4 C2         25.4507   19.5034   66.8487 C.2         1 MOL       0.1116
      5 C3         26.4546   18.8421   67.4662 C.2         1 MOL      -0.0085
      6 C4         26.3756   18.3987   68.8518 C.3         1 MOL       0.0210
      7 N4         26.7001   16.9646   68.9033 N.4         1 MOL       0.2321
      8 C5         25.0131   18.7170   69.5758 C.3         1 MOL       0.1228
      9 N5         25.0964   19.7901   70.5339 N.am        1 MOL      -0.2741
     10 C10        25.5548   21.0223   70.3687 C.2         1 MOL       0.1735
     11 O10        26.0328   21.4078   69.3084 O.2         1 MOL      -0.3974
     12 C11        25.5149   21.9367   71.4831 C.3         1 MOL       0.0257
     13 C6         23.8480   18.9328   68.5503 C.3         1 MOL       0.1349
     14 O6         24.3082   19.8132   67.4998 O.3         1 MOL      -0.3186
     15 C7         23.2198   17.6083   67.9980 C.3         1 MOL       0.1156
     16 O7         22.9097   17.7492   66.6112 O.3         1 MOL      -0.3861
     17 C8         21.9498   17.0918   68.7537 C.3         1 MOL       0.1068
     18 O8         21.2866   16.1381   67.9211 O.3         1 MOL      -0.3869
     19 C9         20.9097   18.1790   69.1527 C.3         1 MOL       0.0727
     20 O9         19.6176   17.6098   69.3403 O.3         1 MOL      -0.3924
     21 H1         27.2993   18.6672   66.9824 H           1 MOL       0.0510
     22 H2         27.1831   18.8971   69.4000 H           1 MOL       0.0996
     23 H3         27.6504   16.8216   68.5592 H           1 MOL       0.2008
     24 H4         26.0591   16.4263   68.3220 H           1 MOL       0.2008
     25 H5         26.6463   16.6242   69.8685 H           1 MOL       0.2008
     26 H6         24.7390   17.8490   70.1938 H           1 MOL       0.0664
     27 H7         24.7567   19.5923   71.4190 H           1 MOL       0.1859
     28 H8         25.8704   22.9324   71.2134 H           1 MOL       0.0467
     29 H9         26.1433   21.5604   72.2923 H           1 MOL       0.0467
     30 H10        24.4907   22.0327   71.8528 H           1 MOL       0.0467
     31 H11        23.0682   19.5154   69.0384 H           1 MOL       0.0698
     32 H12        23.9763   16.8236   68.0473 H           1 MOL       0.0650
     33 H13        23.0741   16.8469   66.2386 H           1 MOL       0.2100
     34 H14        22.2594   16.5727   69.6622 H           1 MOL       0.0643
     35 H15        21.5232   15.2508   68.2734 H           1 MOL       0.2100
     36 H16        20.8415   18.9543   68.3798 H           1 MOL       0.0584
     37 H17        21.1961   18.6457   70.0989 H           1 MOL       0.0584
     38 H18        19.1563   18.2233   69.9526 H           1 MOL       0.2095
@<TRIPOS>BOND
     1     4     1   1
     2     1     3  ar
     3     1     2  ar
     4     4    14   1
     5     4     5   2
     6     5     6   1
     7     6     8   1
     8     6     7   1
     9     8    13   1
    10     8     9   1
    11     9    10  am
    12    10    12   1
    13    10    11   2
    14    13    15   1
    15    13    14   1
    16    15    17   1
    17    15    16   1
    18    17    19   1
    19    17    18   1
    20    19    20   1
    21     5    21   1
    22     6    22   1
    23     7    23   1
    24     7    24   1
    25     7    25   1
    26     8    26   1
    27     9    27   1
    28    12    28   1
    29    12    29   1
    30    12    30   1
    31    13    31   1
    32    15    32   1
    33    16    33   1
    34    17    34   1
    35    18    35   1
    36    19    36   1
    37    19    37   1
    38    20    38   1
@<TRIPOS>SUBSTRUCTURE
     1  MOL      1

