@<TRIPOS>MOLECULE
1f8c_ligand_086
    38    38
SMALL
GAST_HUCK
****
This file was generated by PARSER (from files_GN.cpp)

@<TRIPOS>ATOM
      1 C1         25.8259   14.7072   62.1829 C.2         1 MOL       0.0810
      2 O1A        26.7143   13.8584   62.7688 O.co2       1 MOL      -0.5623
      3 O1B        24.5478   14.2815   61.9892 O.co2       1 MOL      -0.5623
      4 C2         26.1871   15.9683   61.8307 C.2         1 MOL       0.1116
      5 C3         26.6695   16.8542   62.7233 C.2         1 MOL      -0.0085
      6 C4         27.1091   18.1546   62.2749 C.3         1 MOL       0.0210
      7 N4         25.9230   19.0347   62.1270 N.4         1 MOL       0.2321
      8 C5         27.9106   18.0539   60.9313 C.3         1 MOL       0.1228
      9 N5         29.3159   17.8446   61.1841 N.am        1 MOL      -0.2741
     10 C10        29.9278   16.8146   61.7450 C.2         1 MOL       0.1735
     11 O10        29.3053   15.8172   62.1143 O.2         1 MOL      -0.3974
     12 C11        31.3492   16.8587   61.9495 C.3         1 MOL       0.0257
     13 C6         27.2800   16.9764   59.9598 C.3         1 MOL       0.1349
     14 O6         26.0950   16.3349   60.5323 O.3         1 MOL      -0.3186
     15 C7         26.8645   17.4915   58.5332 C.3         1 MOL       0.1156
     16 O7         26.6274   16.3335   57.7205 O.3         1 MOL      -0.3861
     17 C8         27.8726   18.4682   57.8342 C.3         1 MOL       0.1068
     18 O8         27.4127   19.8186   57.9260 O.3         1 MOL      -0.3869
     19 C9         28.1747   18.2216   56.3295 C.3         1 MOL       0.0727
     20 O9         29.4105   18.8377   55.9474 O.3         1 MOL      -0.3924
     21 H1         26.7883   16.5932   63.6805 H           1 MOL       0.0510
     22 H2         27.7270   18.6154   63.0557 H           1 MOL       0.0996
     23 H3         25.3675   19.0192   62.9876 H           1 MOL       0.2008
     24 H4         25.3485   18.7215   61.3422 H           1 MOL       0.2008
     25 H5         26.2410   19.9898   61.9493 H           1 MOL       0.2008
     26 H6         27.8334   19.0358   60.4768 H           1 MOL       0.0664
     27 H7         29.8797   18.5883   60.9139 H           1 MOL       0.1859
     28 H8         31.7063   15.9686   62.4670 H           1 MOL       0.0467
     29 H9         31.6113   17.7324   62.5491 H           1 MOL       0.0467
     30 H10        31.8568   16.9139   60.9846 H           1 MOL       0.0467
     31 H11        28.0160   16.1823   59.7772 H           1 MOL       0.0698
     32 H12        25.8964   18.0010   58.6329 H           1 MOL       0.0650
     33 H13        26.1985   16.6450   56.8977 H           1 MOL       0.2100
     34 H14        28.8282   18.4302   58.3517 H           1 MOL       0.0643
     35 H15        27.8071   20.1961   58.7456 H           1 MOL       0.2100
     36 H16        27.3820   18.6359   55.7029 H           1 MOL       0.0584
     37 H17        28.2493   17.1458   56.1291 H           1 MOL       0.0584
     38 H18        29.5969   18.4936   55.0460 H           1 MOL       0.2095
@<TRIPOS>BOND
     1     4     1   1
     2     1     3  ar
     3     1     2  ar
     4     4    14   1
     5     4     5   2
     6     5     6   1
     7     6     8   1
     8     6     7   1
     9     8    13   1
    10     8     9   1
    11     9    10  am
    12    10    12   1
    13    10    11   2
    14    13    15   1
    15    13    14   1
    16    15    17   1
    17    15    16   1
    18    17    19   1
    19    17    18   1
    20    19    20   1
    21     5    21   1
    22     6    22   1
    23     7    23   1
    24     7    24   1
    25     7    25   1
    26     8    26   1
    27     9    27   1
    28    12    28   1
    29    12    29   1
    30    12    30   1
    31    13    31   1
    32    15    32   1
    33    16    33   1
    34    17    34   1
    35    18    35   1
    36    19    36   1
    37    19    37   1
    38    20    38   1
@<TRIPOS>SUBSTRUCTURE
     1  MOL      1

