@<TRIPOS>MOLECULE
1f8c_ligand_078
    38    38
SMALL
GAST_HUCK
****
This file was generated by PARSER (from files_GN.cpp)

@<TRIPOS>ATOM
      1 C1         27.4310   20.6639   61.2740 C.2         1 MOL       0.0810
      2 O1A        27.0844   21.6070   60.3550 O.co2       1 MOL      -0.5623
      3 O1B        28.0821   21.0801   62.3937 O.co2       1 MOL      -0.5623
      4 C2         27.0932   19.3396   61.1241 C.2         1 MOL       0.1116
      5 C3         27.1642   18.6980   59.9387 C.2         1 MOL      -0.0085
      6 C4         26.7862   17.3044   59.7772 C.3         1 MOL       0.0210
      7 N4         25.9051   17.2254   58.5944 N.4         1 MOL       0.2321
      8 C5         26.0792   16.6509   61.0146 C.3         1 MOL       0.1228
      9 N5         26.3075   15.2278   60.9989 N.am        1 MOL      -0.2741
     10 C10        25.5476   14.2803   61.5411 C.2         1 MOL       0.1735
     11 O10        24.5353   14.5644   62.1898 O.2         1 MOL      -0.3974
     12 C11        25.9748   12.9122   61.3793 C.3         1 MOL       0.0257
     13 C6         26.6022   17.3151   62.3468 C.3         1 MOL       0.1349
     14 O6         26.5699   18.7533   62.2287 O.3         1 MOL      -0.3186
     15 C7         25.7368   16.9757   63.6023 C.3         1 MOL       0.1156
     16 O7         24.3641   17.2831   63.3209 O.3         1 MOL      -0.3861
     17 C8         26.2278   17.6633   64.9325 C.3         1 MOL       0.1068
     18 O8         27.1780   16.8077   65.5842 O.3         1 MOL      -0.3869
     19 C9         25.0856   18.0212   65.9292 C.3         1 MOL       0.0727
     20 O9         25.5036   17.9297   67.2923 O.3         1 MOL      -0.3924
     21 H1         27.5645   19.1762   59.1514 H           1 MOL       0.0510
     22 H2         27.7115   16.7638   59.5441 H           1 MOL       0.0996
     23 H3         26.4350   17.4833   57.7579 H           1 MOL       0.2008
     24 H4         25.1284   17.8789   58.7290 H           1 MOL       0.2008
     25 H5         25.5384   16.2793   58.4976 H           1 MOL       0.2008
     26 H6         25.0128   16.8729   60.9306 H           1 MOL       0.0664
     27 H7         27.0978   14.9419   60.5011 H           1 MOL       0.1859
     28 H8         25.3151   12.2379   61.9301 H           1 MOL       0.0467
     29 H9         26.9974   12.7925   61.7607 H           1 MOL       0.0467
     30 H10        25.9473   12.6494   60.3148 H           1 MOL       0.0467
     31 H11        27.6394   16.9971   62.5288 H           1 MOL       0.0698
     32 H12        25.7626   15.8962   63.7671 H           1 MOL       0.0650
     33 H13        24.3475   18.2411   63.0601 H           1 MOL       0.2100
     34 H14        26.7618   18.5980   64.6974 H           1 MOL       0.0643
     35 H15        27.9319   16.7332   64.9534 H           1 MOL       0.2100
     36 H16        24.2256   17.3560   65.7819 H           1 MOL       0.0584
     37 H17        24.7614   19.0499   65.7330 H           1 MOL       0.0584
     38 H18        25.5583   16.9631   67.4404 H           1 MOL       0.2095
@<TRIPOS>BOND
     1     4     1   1
     2     1     3  ar
     3     1     2  ar
     4     4    14   1
     5     4     5   2
     6     5     6   1
     7     6     8   1
     8     6     7   1
     9     8    13   1
    10     8     9   1
    11     9    10  am
    12    10    12   1
    13    10    11   2
    14    13    15   1
    15    13    14   1
    16    15    17   1
    17    15    16   1
    18    17    19   1
    19    17    18   1
    20    19    20   1
    21     5    21   1
    22     6    22   1
    23     7    23   1
    24     7    24   1
    25     7    25   1
    26     8    26   1
    27     9    27   1
    28    12    28   1
    29    12    29   1
    30    12    30   1
    31    13    31   1
    32    15    32   1
    33    16    33   1
    34    17    34   1
    35    18    35   1
    36    19    36   1
    37    19    37   1
    38    20    38   1
@<TRIPOS>SUBSTRUCTURE
     1  MOL      1

