@<TRIPOS>MOLECULE
1f8c_ligand_080
    38    38
SMALL
GAST_HUCK
****
This file was generated by PARSER (from files_GN.cpp)

@<TRIPOS>ATOM
      1 C1         23.6591   13.5390   62.5593 C.2         1 MOL       0.0810
      2 O1A        22.3431   13.2495   62.3709 O.co2       1 MOL      -0.5623
      3 O1B        24.4958   12.4904   62.7925 O.co2       1 MOL      -0.5623
      4 C2         24.1784   14.8150   62.4120 C.2         1 MOL       0.1116
      5 C3         23.7187   15.6458   61.4483 C.2         1 MOL      -0.0085
      6 C4         24.3158   16.9309   61.1823 C.3         1 MOL       0.0210
      7 N4         25.0639   16.8746   59.9052 N.4         1 MOL       0.2321
      8 C5         25.2387   17.4358   62.3360 C.3         1 MOL       0.1228
      9 N5         24.4001   18.0166   63.3504 N.am        1 MOL      -0.2741
     10 C10        24.6646   19.0827   64.0950 C.2         1 MOL       0.1735
     11 O10        25.7366   19.6781   64.0297 O.2         1 MOL      -0.3974
     12 C11        23.6585   19.5457   65.0224 C.3         1 MOL       0.0257
     13 C6         26.0615   16.2479   62.9451 C.3         1 MOL       0.1349
     14 O6         25.1635   15.1718   63.2810 O.3         1 MOL      -0.3186
     15 C7         27.3582   15.7696   62.1758 C.3         1 MOL       0.1156
     16 O7         27.8816   16.8263   61.3709 O.3         1 MOL      -0.3861
     17 C8         27.2324   14.4591   61.3317 C.3         1 MOL       0.1068
     18 O8         27.3205   13.3583   62.2551 O.3         1 MOL      -0.3869
     19 C9         28.2842   14.2008   60.1898 C.3         1 MOL       0.0727
     20 O9         29.3173   15.1758   60.0629 O.3         1 MOL      -0.3924
     21 H1         23.0033   15.3294   60.8261 H           1 MOL       0.0510
     22 H2         23.5120   17.6496   61.0202 H           1 MOL       0.0996
     23 H3         24.5374   16.3681   59.1843 H           1 MOL       0.2008
     24 H4         25.9678   16.4098   60.0392 H           1 MOL       0.2008
     25 H5         25.2301   17.8321   59.5755 H           1 MOL       0.2008
     26 H6         25.8993   18.2153   61.9417 H           1 MOL       0.0664
     27 H7         23.5347   17.5912   63.5032 H           1 MOL       0.1859
     28 H8         24.0148   20.3931   65.6149 H           1 MOL       0.0467
     29 H9         23.3888   18.7361   65.7061 H           1 MOL       0.0467
     30 H10        22.7692   19.8591   64.4663 H           1 MOL       0.0467
     31 H11        26.4324   16.6108   63.9017 H           1 MOL       0.0698
     32 H12        28.1307   15.5562   62.9209 H           1 MOL       0.0650
     33 H13        28.1632   17.5117   62.0193 H           1 MOL       0.2100
     34 H14        26.2272   14.4295   60.8785 H           1 MOL       0.0643
     35 H15        26.8431   12.6121   61.8114 H           1 MOL       0.2100
     36 H16        27.7555   14.1770   59.2273 H           1 MOL       0.0584
     37 H17        28.7518   13.2202   60.3230 H           1 MOL       0.0584
     38 H18        29.5755   15.4133   60.9701 H           1 MOL       0.2095
@<TRIPOS>BOND
     1     4     1   1
     2     1     3  ar
     3     1     2  ar
     4     4    14   1
     5     4     5   2
     6     5     6   1
     7     6     8   1
     8     6     7   1
     9     8    13   1
    10     8     9   1
    11     9    10  am
    12    10    12   1
    13    10    11   2
    14    13    15   1
    15    13    14   1
    16    15    17   1
    17    15    16   1
    18    17    19   1
    19    17    18   1
    20    19    20   1
    21     5    21   1
    22     6    22   1
    23     7    23   1
    24     7    24   1
    25     7    25   1
    26     8    26   1
    27     9    27   1
    28    12    28   1
    29    12    29   1
    30    12    30   1
    31    13    31   1
    32    15    32   1
    33    16    33   1
    34    17    34   1
    35    18    35   1
    36    19    36   1
    37    19    37   1
    38    20    38   1
@<TRIPOS>SUBSTRUCTURE
     1  MOL      1

