@<TRIPOS>MOLECULE
1f8c_ligand_063
    38    38
SMALL
GAST_HUCK
****
This file was generated by PARSER (from files_GN.cpp)

@<TRIPOS>ATOM
      1 C1         27.8361   16.7833   66.2298 C.2         1 MOL       0.0810
      2 O1A        27.6997   17.6833   67.2374 O.co2       1 MOL      -0.5623
      3 O1B        28.4867   15.6264   66.5314 O.co2       1 MOL      -0.5623
      4 C2         27.3767   17.0129   64.9551 C.2         1 MOL       0.1116
      5 C3         27.2889   18.2534   64.4353 C.2         1 MOL      -0.0085
      6 C4         26.8696   18.5215   63.0870 C.3         1 MOL       0.0210
      7 N4         25.9749   19.6927   63.0599 N.4         1 MOL       0.2321
      8 C5         26.1472   17.3208   62.3801 C.3         1 MOL       0.1228
      9 N5         26.1109   17.5343   60.9670 N.am        1 MOL      -0.2741
     10 C10        27.0219   17.2145   60.0434 C.2         1 MOL       0.1735
     11 O10        28.0871   16.6676   60.3418 O.2         1 MOL      -0.3974
     12 C11        26.6969   17.4270   58.6570 C.3         1 MOL       0.0257
     13 C6         26.7220   15.9295   62.8415 C.3         1 MOL       0.1349
     14 O6         26.9320   15.9304   64.2737 O.3         1 MOL      -0.3186
     15 C7         25.7942   14.6860   62.5995 C.3         1 MOL       0.1156
     16 O7         26.5217   13.5108   62.9768 O.3         1 MOL      -0.3861
     17 C8         25.1532   14.4686   61.1847 C.3         1 MOL       0.1068
     18 O8         23.8786   13.8482   61.3526 O.3         1 MOL      -0.3869
     19 C9         25.9617   13.6364   60.1610 C.3         1 MOL       0.0727
     20 O9         27.1955   14.2655   59.7917 O.3         1 MOL      -0.3924
     21 H1         27.6364   19.0293   64.9615 H           1 MOL       0.0510
     22 H2         27.7690   18.7843   62.5178 H           1 MOL       0.0996
     23 H3         26.4854   20.5094   63.4001 H           1 MOL       0.2008
     24 H4         25.1700   19.5172   63.6704 H           1 MOL       0.2008
     25 H5         25.6480   19.8628   62.1101 H           1 MOL       0.2008
     26 H6         25.1038   17.3428   62.7052 H           1 MOL       0.0664
     27 H7         25.3268   17.9972   60.6158 H           1 MOL       0.1859
     28 H8         27.4011   16.9122   57.9956 H           1 MOL       0.0467
     29 H9         26.7178   18.4928   58.4299 H           1 MOL       0.0467
     30 H10        25.6929   17.0391   58.4514 H           1 MOL       0.0467
     31 H11        27.6877   15.7554   62.3743 H           1 MOL       0.0698
     32 H12        24.9724   14.7761   63.3095 H           1 MOL       0.0650
     33 H13        25.8667   12.7794   62.9380 H           1 MOL       0.2100
     34 H14        24.9294   15.4379   60.7249 H           1 MOL       0.0643
     35 H15        23.9938   12.9098   61.0724 H           1 MOL       0.2100
     36 H16        25.3694   13.4962   59.2515 H           1 MOL       0.0584
     37 H17        26.1877   12.6414   60.5729 H           1 MOL       0.0584
     38 H18        27.6273   13.6064   59.1908 H           1 MOL       0.2095
@<TRIPOS>BOND
     1     4     1   1
     2     1     3  ar
     3     1     2  ar
     4     4    14   1
     5     4     5   2
     6     5     6   1
     7     6     8   1
     8     6     7   1
     9     8    13   1
    10     8     9   1
    11     9    10  am
    12    10    12   1
    13    10    11   2
    14    13    15   1
    15    13    14   1
    16    15    17   1
    17    15    16   1
    18    17    19   1
    19    17    18   1
    20    19    20   1
    21     5    21   1
    22     6    22   1
    23     7    23   1
    24     7    24   1
    25     7    25   1
    26     8    26   1
    27     9    27   1
    28    12    28   1
    29    12    29   1
    30    12    30   1
    31    13    31   1
    32    15    32   1
    33    16    33   1
    34    17    34   1
    35    18    35   1
    36    19    36   1
    37    19    37   1
    38    20    38   1
@<TRIPOS>SUBSTRUCTURE
     1  MOL      1

