@<TRIPOS>MOLECULE
1f8c_ligand_065
    38    38
SMALL
GAST_HUCK
****
This file was generated by PARSER (from files_GN.cpp)

@<TRIPOS>ATOM
      1 C1         27.2941   13.9208   61.5140 C.2         1 MOL       0.0810
      2 O1A        27.0827   13.5362   60.2335 O.co2       1 MOL      -0.5623
      3 O1B        26.9827   13.0240   62.4799 O.co2       1 MOL      -0.5623
      4 C2         27.7065   15.2050   61.8026 C.2         1 MOL       0.1116
      5 C3         27.5801   15.7455   63.0352 C.2         1 MOL      -0.0085
      6 C4         27.9638   17.1084   63.3513 C.3         1 MOL       0.0210
      7 N4         26.7725   17.8759   63.7425 N.4         1 MOL       0.2321
      8 C5         28.7454   17.8394   62.2071 C.3         1 MOL       0.1228
      9 N5         30.1624   17.6079   62.3369 N.am        1 MOL      -0.2741
     10 C10        30.9627   18.0990   63.2695 C.2         1 MOL       0.1735
     11 O10        30.5452   18.8391   64.1533 O.2         1 MOL      -0.3974
     12 C11        32.3691   17.7648   63.2360 C.3         1 MOL       0.0257
     13 C6         28.2874   17.3280   60.8005 C.3         1 MOL       0.1349
     14 O6         28.2846   15.8830   60.7836 O.3         1 MOL      -0.3186
     15 C7         26.9475   17.9245   60.2454 C.3         1 MOL       0.1156
     16 O7         25.8174   17.3248   60.8794 O.3         1 MOL      -0.3861
     17 C8         26.7688   17.7983   58.6931 C.3         1 MOL       0.1068
     18 O8         26.8649   16.4401   58.2663 O.3         1 MOL      -0.3869
     19 C9         27.7507   18.6658   57.8612 C.3         1 MOL       0.0727
     20 O9         27.3630   18.7391   56.4922 O.3         1 MOL      -0.3924
     21 H1         27.1502   15.2182   63.7663 H           1 MOL       0.0510
     22 H2         28.5914   17.0696   64.2488 H           1 MOL       0.0996
     23 H3         26.3004   17.4048   64.5209 H           1 MOL       0.2008
     24 H4         26.1283   17.9578   62.9584 H           1 MOL       0.2008
     25 H5         27.0581   18.8080   64.0455 H           1 MOL       0.2008
     26 H6         28.5730   18.9211   62.2507 H           1 MOL       0.0664
     27 H7         30.5775   17.0541   61.6564 H           1 MOL       0.1859
     28 H8         32.9165   18.2385   64.0556 H           1 MOL       0.0467
     29 H9         32.8063   18.1029   62.2958 H           1 MOL       0.0467
     30 H10        32.4985   16.6839   63.3183 H           1 MOL       0.0467
     31 H11        29.0646   17.6330   60.0994 H           1 MOL       0.0698
     32 H12        26.9123   18.9902   60.4955 H           1 MOL       0.0650
     33 H13        25.0649   17.9053   60.6397 H           1 MOL       0.2100
     34 H14        25.7588   18.1331   58.4478 H           1 MOL       0.0643
     35 H15        25.9418   16.1018   58.2521 H           1 MOL       0.2100
     36 H16        28.7612   18.2647   57.9085 H           1 MOL       0.0584
     37 H17        27.7639   19.6876   58.2437 H           1 MOL       0.0584
     38 H18        26.9171   17.8921   56.2545 H           1 MOL       0.2095
@<TRIPOS>BOND
     1     4     1   1
     2     1     3  ar
     3     1     2  ar
     4     4    14   1
     5     4     5   2
     6     5     6   1
     7     6     8   1
     8     6     7   1
     9     8    13   1
    10     8     9   1
    11     9    10  am
    12    10    12   1
    13    10    11   2
    14    13    15   1
    15    13    14   1
    16    15    17   1
    17    15    16   1
    18    17    19   1
    19    17    18   1
    20    19    20   1
    21     5    21   1
    22     6    22   1
    23     7    23   1
    24     7    24   1
    25     7    25   1
    26     8    26   1
    27     9    27   1
    28    12    28   1
    29    12    29   1
    30    12    30   1
    31    13    31   1
    32    15    32   1
    33    16    33   1
    34    17    34   1
    35    18    35   1
    36    19    36   1
    37    19    37   1
    38    20    38   1
@<TRIPOS>SUBSTRUCTURE
     1  MOL      1

