@<TRIPOS>MOLECULE
1f8c_ligand_024
    38    38
SMALL
GAST_HUCK
****
This file was generated by PARSER (from files_GN.cpp)

@<TRIPOS>ATOM
      1 C1         28.1065   16.7652   66.1777 C.2         1 MOL       0.0810
      2 O1A        28.8656   15.6579   66.3770 O.co2       1 MOL      -0.5623
      3 O1B        28.4179   17.8499   66.9271 O.co2       1 MOL      -0.5623
      4 C2         27.1069   16.7781   65.2228 C.2         1 MOL       0.1116
      5 C3         26.0896   17.6721   65.2679 C.2         1 MOL      -0.0085
      6 C4         25.0489   17.7346   64.2565 C.3         1 MOL       0.0210
      7 N4         23.7354   17.8269   64.9137 N.4         1 MOL       0.2321
      8 C5         25.0541   16.5343   63.2504 C.3         1 MOL       0.1228
      9 N5         24.4135   16.9307   62.0255 N.am        1 MOL      -0.2741
     10 C10        23.5281   16.2285   61.3280 C.2         1 MOL       0.1735
     11 O10        23.1383   15.1222   61.7046 O.2         1 MOL      -0.3974
     12 C11        23.1217   16.7175   60.0389 C.3         1 MOL       0.0257
     13 C6         26.5289   16.0876   62.9864 C.3         1 MOL       0.1349
     14 O6         27.1724   15.8225   64.2567 O.3         1 MOL      -0.3186
     15 C7         26.6228   14.8154   62.0722 C.3         1 MOL       0.1156
     16 O7         26.7046   13.6454   62.9044 O.3         1 MOL      -0.3861
     17 C8         27.7791   14.7360   61.0213 C.3         1 MOL       0.1068
     18 O8         28.3417   16.0140   60.7203 O.3         1 MOL      -0.3869
     19 C9         27.3513   14.1234   59.6583 C.3         1 MOL       0.0727
     20 O9         26.8590   15.1216   58.7602 O.3         1 MOL      -0.3924
     21 H1         26.0861   18.3837   65.9609 H           1 MOL       0.0510
     22 H2         25.2025   18.6696   63.6996 H           1 MOL       0.0996
     23 H3         23.7340   18.6185   65.5607 H           1 MOL       0.2008
     24 H4         23.5559   16.9626   65.4285 H           1 MOL       0.2008
     25 H5         23.0064   17.9625   64.2072 H           1 MOL       0.2008
     26 H6         24.5419   15.6865   63.7245 H           1 MOL       0.0664
     27 H7         24.7011   17.7750   61.6317 H           1 MOL       0.1859
     28 H8         22.5054   15.9835   59.5080 H           1 MOL       0.0467
     29 H9         24.0035   16.9325   59.4243 H           1 MOL       0.0467
     30 H10        22.5425   17.6371   60.1608 H           1 MOL       0.0467
     31 H11        27.0420   16.9269   62.5125 H           1 MOL       0.0698
     32 H12        25.6925   14.7152   61.5131 H           1 MOL       0.0650
     33 H13        25.7851   13.2444   62.9173 H           1 MOL       0.2100
     34 H14        28.5875   14.1142   61.4172 H           1 MOL       0.0643
     35 H15        29.1296   16.1018   61.3419 H           1 MOL       0.2100
     36 H16        26.5844   13.3572   59.7762 H           1 MOL       0.0584
     37 H17        28.2133   13.6589   59.1698 H           1 MOL       0.0584
     38 H18        25.8921   14.9512   58.6432 H           1 MOL       0.2095
@<TRIPOS>BOND
     1     4     1   1
     2     1     3  ar
     3     1     2  ar
     4     4    14   1
     5     4     5   2
     6     5     6   1
     7     6     8   1
     8     6     7   1
     9     8    13   1
    10     8     9   1
    11     9    10  am
    12    10    12   1
    13    10    11   2
    14    13    15   1
    15    13    14   1
    16    15    17   1
    17    15    16   1
    18    17    19   1
    19    17    18   1
    20    19    20   1
    21     5    21   1
    22     6    22   1
    23     7    23   1
    24     7    24   1
    25     7    25   1
    26     8    26   1
    27     9    27   1
    28    12    28   1
    29    12    29   1
    30    12    30   1
    31    13    31   1
    32    15    32   1
    33    16    33   1
    34    17    34   1
    35    18    35   1
    36    19    36   1
    37    19    37   1
    38    20    38   1
@<TRIPOS>SUBSTRUCTURE
     1  MOL      1

