@<TRIPOS>MOLECULE
1f8c_ligand_039
    38    38
SMALL
GAST_HUCK
****
This file was generated by PARSER (from files_GN.cpp)

@<TRIPOS>ATOM
      1 C1         24.4336   19.9617   65.2542 C.2         1 MOL       0.0810
      2 O1A        24.4420   21.0488   64.4523 O.co2       1 MOL      -0.5623
      3 O1B        23.2235   19.4874   65.6464 O.co2       1 MOL      -0.5623
      4 C2         25.6079   19.2502   65.3900 C.2         1 MOL       0.1116
      5 C3         25.6668   17.9057   65.3993 C.2         1 MOL      -0.0085
      6 C4         26.9541   17.2404   65.4987 C.3         1 MOL       0.0210
      7 N4         27.3172   17.1306   66.9216 N.4         1 MOL       0.2321
      8 C5         28.0581   17.9976   64.6931 C.3         1 MOL       0.1228
      9 N5         27.9945   17.6215   63.3046 N.am        1 MOL      -0.2741
     10 C10        28.7223   16.6972   62.6914 C.2         1 MOL       0.1735
     11 O10        29.4970   15.9705   63.3049 O.2         1 MOL      -0.3974
     12 C11        28.5957   16.5506   61.2617 C.3         1 MOL       0.0257
     13 C6         27.9234   19.5675   64.8146 C.3         1 MOL       0.1349
     14 O6         26.7426   19.9571   65.5733 O.3         1 MOL      -0.3186
     15 C7         29.1412   20.3108   65.4596 C.3         1 MOL       0.1156
     16 O7         28.8836   21.7141   65.3634 O.3         1 MOL      -0.3861
     17 C8         30.5810   20.0298   64.8928 C.3         1 MOL       0.1068
     18 O8         30.5397   19.4399   63.5929 O.3         1 MOL      -0.3869
     19 C9         31.4610   19.1695   65.8438 C.3         1 MOL       0.0727
     20 O9         32.6417   18.7024   65.1952 O.3         1 MOL      -0.3924
     21 H1         24.8503   17.3603   65.2407 H           1 MOL       0.0510
     22 H2         26.8660   16.2146   65.1248 H           1 MOL       0.0996
     23 H3         26.6873   16.4615   67.3649 H           1 MOL       0.2008
     24 H4         27.2374   18.0415   67.3797 H           1 MOL       0.2008
     25 H5         28.2761   16.7903   67.0059 H           1 MOL       0.2008
     26 H6         29.0162   17.6797   65.0964 H           1 MOL       0.0664
     27 H7         27.3726   18.1193   62.7486 H           1 MOL       0.1859
     28 H8         29.1969   15.7174   60.8900 H           1 MOL       0.0467
     29 H9         28.9346   17.4650   60.7708 H           1 MOL       0.0467
     30 H10        27.5532   16.3686   60.9930 H           1 MOL       0.0467
     31 H11        27.7860   19.9994   63.8167 H           1 MOL       0.0698
     32 H12        29.1299   20.0817   66.5309 H           1 MOL       0.0650
     33 H13        29.0800   21.9506   64.4308 H           1 MOL       0.2100
     34 H14        31.1135   20.9784   64.7692 H           1 MOL       0.0643
     35 H15        30.2376   20.1557   62.9939 H           1 MOL       0.2100
     36 H16        30.9140   18.3022   66.2154 H           1 MOL       0.0584
     37 H17        31.7601   19.7686   66.7087 H           1 MOL       0.0584
     38 H18        33.1231   18.1986   65.8884 H           1 MOL       0.2095
@<TRIPOS>BOND
     1     4     1   1
     2     1     3  ar
     3     1     2  ar
     4     4    14   1
     5     4     5   2
     6     5     6   1
     7     6     8   1
     8     6     7   1
     9     8    13   1
    10     8     9   1
    11     9    10  am
    12    10    12   1
    13    10    11   2
    14    13    15   1
    15    13    14   1
    16    15    17   1
    17    15    16   1
    18    17    19   1
    19    17    18   1
    20    19    20   1
    21     5    21   1
    22     6    22   1
    23     7    23   1
    24     7    24   1
    25     7    25   1
    26     8    26   1
    27     9    27   1
    28    12    28   1
    29    12    29   1
    30    12    30   1
    31    13    31   1
    32    15    32   1
    33    16    33   1
    34    17    34   1
    35    18    35   1
    36    19    36   1
    37    19    37   1
    38    20    38   1
@<TRIPOS>SUBSTRUCTURE
     1  MOL      1

