@<TRIPOS>MOLECULE
1f8c_ligand_035
    38    38
SMALL
GAST_HUCK
****
This file was generated by PARSER (from files_GN.cpp)

@<TRIPOS>ATOM
      1 C1         24.4359   20.2487   65.4327 C.2         1 MOL       0.0810
      2 O1A        23.2520   19.7125   65.8151 O.co2       1 MOL      -0.5623
      3 O1B        24.3983   21.1901   64.4632 O.co2       1 MOL      -0.5623
      4 C2         25.6579   19.7589   65.8654 C.2         1 MOL       0.1116
      5 C3         25.7358   18.7950   66.8154 C.2         1 MOL      -0.0085
      6 C4         27.0065   18.3007   67.3274 C.3         1 MOL       0.0210
      7 N4         26.9633   18.2756   68.8025 N.4         1 MOL       0.2321
      8 C5         28.2460   19.1307   66.8609 C.3         1 MOL       0.1228
      9 N5         29.4409   18.3316   66.9731 N.am        1 MOL      -0.2741
     10 C10        30.5325   18.6036   67.6731 C.2         1 MOL       0.1735
     11 O10        30.6458   19.6488   68.3075 O.2         1 MOL      -0.3974
     12 C11        31.6231   17.6623   67.6546 C.3         1 MOL       0.0257
     13 C6         28.0112   19.6212   65.3897 C.3         1 MOL       0.1349
     14 O6         26.7699   20.3719   65.3721 O.3         1 MOL      -0.3186
     15 C7         29.1787   20.4993   64.8470 C.3         1 MOL       0.1156
     16 O7         29.0169   21.8426   65.3046 O.3         1 MOL      -0.3861
     17 C8         29.3803   20.5280   63.3022 C.3         1 MOL       0.1068
     18 O8         28.5958   21.5540   62.7006 O.3         1 MOL      -0.3869
     19 C9         29.0890   19.1742   62.5979 C.3         1 MOL       0.0727
     20 O9         29.6433   19.1467   61.2726 O.3         1 MOL      -0.3924
     21 H1         24.9115   18.3476   67.1490 H           1 MOL       0.0510
     22 H2         27.1136   17.2666   66.9873 H           1 MOL       0.0996
     23 H3         26.1733   17.6959   69.1119 H           1 MOL       0.2008
     24 H4         26.8443   19.2349   69.1570 H           1 MOL       0.2008
     25 H5         27.8402   17.8817   69.1654 H           1 MOL       0.2008
     26 H6         28.3087   20.0308   67.4942 H           1 MOL       0.0664
     27 H7         29.4413   17.5030   66.4677 H           1 MOL       0.1859
     28 H8         32.4827   18.0368   68.2033 H           1 MOL       0.0467
     29 H9         31.9299   17.4679   66.6294 H           1 MOL       0.0467
     30 H10        31.3048   16.7275   68.1111 H           1 MOL       0.0467
     31 H11        27.9088   18.7433   64.7495 H           1 MOL       0.0698
     32 H12        30.1149   20.1270   65.2823 H           1 MOL       0.0650
     33 H13        29.7378   22.3561   64.8653 H           1 MOL       0.2100
     34 H14        30.4282   20.7636   63.1230 H           1 MOL       0.0643
     35 H15        29.0970   21.8240   61.9031 H           1 MOL       0.2100
     36 H16        28.0002   19.0002   62.5221 H           1 MOL       0.0584
     37 H17        29.5420   18.3357   63.1440 H           1 MOL       0.0584
     38 H18        29.2898   19.9637   60.8258 H           1 MOL       0.2095
@<TRIPOS>BOND
     1     4     1   1
     2     1     3  ar
     3     1     2  ar
     4     4    14   1
     5     4     5   2
     6     5     6   1
     7     6     8   1
     8     6     7   1
     9     8    13   1
    10     8     9   1
    11     9    10  am
    12    10    12   1
    13    10    11   2
    14    13    15   1
    15    13    14   1
    16    15    17   1
    17    15    16   1
    18    17    19   1
    19    17    18   1
    20    19    20   1
    21     5    21   1
    22     6    22   1
    23     7    23   1
    24     7    24   1
    25     7    25   1
    26     8    26   1
    27     9    27   1
    28    12    28   1
    29    12    29   1
    30    12    30   1
    31    13    31   1
    32    15    32   1
    33    16    33   1
    34    17    34   1
    35    18    35   1
    36    19    36   1
    37    19    37   1
    38    20    38   1
@<TRIPOS>SUBSTRUCTURE
     1  MOL      1

