@<TRIPOS>MOLECULE
1f8c_ligand_043
    38    38
SMALL
GAST_HUCK
****
This file was generated by PARSER (from files_GN.cpp)

@<TRIPOS>ATOM
      1 C1         23.5594   20.2182   65.0250 C.2         1 MOL       0.0810
      2 O1A        24.5041   21.0353   64.4991 O.co2       1 MOL      -0.5623
      3 O1B        22.3517   20.1832   64.4185 O.co2       1 MOL      -0.5623
      4 C2         23.7619   19.5087   66.1915 C.2         1 MOL       0.1116
      5 C3         24.9731   19.2933   66.7409 C.2         1 MOL      -0.0085
      6 C4         25.0949   18.5311   67.9721 C.3         1 MOL       0.0210
      7 N4         25.2678   17.1188   67.5943 N.4         1 MOL       0.2321
      8 C5         23.8825   18.7255   68.9561 C.3         1 MOL       0.1228
      9 N5         24.2276   19.5048   70.1139 N.am        1 MOL      -0.2741
     10 C10        24.5666   20.7896   70.1601 C.2         1 MOL       0.1735
     11 O10        24.6389   21.4764   69.1469 O.2         1 MOL      -0.3974
     12 C11        24.8801   21.3837   71.4379 C.3         1 MOL       0.0257
     13 C6         22.6043   19.2918   68.2307 C.3         1 MOL       0.1349
     14 O6         22.6661   19.0264   66.8095 O.3         1 MOL      -0.3186
     15 C7         21.2481   18.7357   68.7681 C.3         1 MOL       0.1156
     16 O7         21.0874   17.3873   68.3058 O.3         1 MOL      -0.3861
     17 C8         20.0243   19.6056   68.3522 C.3         1 MOL       0.1068
     18 O8         20.1014   20.8639   69.0213 O.3         1 MOL      -0.3869
     19 C9         18.6309   18.9676   68.5998 C.3         1 MOL       0.0727
     20 O9         18.6652   17.7672   69.3712 O.3         1 MOL      -0.3924
     21 H1         25.7988   19.6692   66.3252 H           1 MOL       0.0510
     22 H2         26.0247   18.8147   68.4726 H           1 MOL       0.0996
     23 H3         26.1048   17.0230   67.0157 H           1 MOL       0.2008
     24 H4         24.4590   16.7760   67.0685 H           1 MOL       0.2008
     25 H5         25.3832   16.5502   68.4356 H           1 MOL       0.2008
     26 H6         23.6308   17.7385   69.3553 H           1 MOL       0.0664
     27 H7         24.2205   19.0355   70.9672 H           1 MOL       0.1859
     28 H8         25.1431   22.4385   71.3365 H           1 MOL       0.0467
     29 H9         25.7242   20.8588   71.8912 H           1 MOL       0.0467
     30 H10        24.0161   21.3045   72.0970 H           1 MOL       0.0467
     31 H11        22.5873   20.3848   68.3532 H           1 MOL       0.0698
     32 H12        21.2849   18.7054   69.8643 H           1 MOL       0.0650
     33 H13        21.4974   16.8206   68.9929 H           1 MOL       0.2100
     34 H14        20.0987   19.8266   67.2900 H           1 MOL       0.0643
     35 H15        20.0101   20.6652   69.9786 H           1 MOL       0.2100
     36 H16        18.1774   18.7147   67.6350 H           1 MOL       0.0584
     37 H17        17.9682   19.6862   69.1072 H           1 MOL       0.0584
     38 H18        18.4532   18.0169   70.3156 H           1 MOL       0.2095
@<TRIPOS>BOND
     1     4     1   1
     2     1     3  ar
     3     1     2  ar
     4     4    14   1
     5     4     5   2
     6     5     6   1
     7     6     8   1
     8     6     7   1
     9     8    13   1
    10     8     9   1
    11     9    10  am
    12    10    12   1
    13    10    11   2
    14    13    15   1
    15    13    14   1
    16    15    17   1
    17    15    16   1
    18    17    19   1
    19    17    18   1
    20    19    20   1
    21     5    21   1
    22     6    22   1
    23     7    23   1
    24     7    24   1
    25     7    25   1
    26     8    26   1
    27     9    27   1
    28    12    28   1
    29    12    29   1
    30    12    30   1
    31    13    31   1
    32    15    32   1
    33    16    33   1
    34    17    34   1
    35    18    35   1
    36    19    36   1
    37    19    37   1
    38    20    38   1
@<TRIPOS>SUBSTRUCTURE
     1  MOL      1

