@<TRIPOS>MOLECULE
1f8c_ligand_019
    38    38
SMALL
GAST_HUCK
****
This file was generated by PARSER (from files_GN.cpp)

@<TRIPOS>ATOM
      1 C1         24.9510   19.8578   64.4694 C.2         1 MOL       0.0810
      2 O1A        24.5825   21.1565   64.5697 O.co2       1 MOL      -0.5623
      3 O1B        24.3607   18.9721   65.3178 O.co2       1 MOL      -0.5623
      4 C2         26.0293   19.4502   63.7139 C.2         1 MOL       0.1116
      5 C3         27.2494   20.0189   63.8555 C.2         1 MOL      -0.0085
      6 C4         28.4285   19.5028   63.1703 C.3         1 MOL       0.0210
      7 N4         29.2592   20.6074   62.6787 N.4         1 MOL       0.2321
      8 C5         28.0799   18.5117   62.0083 C.3         1 MOL       0.1228
      9 N5         29.2296   17.7888   61.5485 N.am        1 MOL      -0.2741
     10 C10        30.0422   17.0019   62.2370 C.2         1 MOL       0.1735
     11 O10        29.8713   16.7526   63.4253 O.2         1 MOL      -0.3974
     12 C11        31.2022   16.4470   61.5671 C.3         1 MOL       0.0257
     13 C6         26.8485   17.6188   62.4057 C.3         1 MOL       0.1349
     14 O6         25.7621   18.4889   62.7932 O.3         1 MOL      -0.3186
     15 C7         26.3941   16.6319   61.2799 C.3         1 MOL       0.1156
     16 O7         26.5372   17.2007   59.9779 O.3         1 MOL      -0.3861
     17 C8         24.9563   16.0297   61.4053 C.3         1 MOL       0.1068
     18 O8         24.0224   16.7162   60.5752 O.3         1 MOL      -0.3869
     19 C9         24.3862   15.8936   62.8544 C.3         1 MOL       0.0727
     20 O9         23.5042   16.9587   63.2057 O.3         1 MOL      -0.3924
     21 H1         27.4052   20.6889   64.5951 H           1 MOL       0.0510
     22 H2         29.0080   18.9725   63.9322 H           1 MOL       0.0996
     23 H3         29.4377   21.2606   63.4451 H           1 MOL       0.2008
     24 H4         28.8050   21.1035   61.9086 H           1 MOL       0.2008
     25 H5         30.1477   20.2310   62.3445 H           1 MOL       0.2008
     26 H6         27.7509   19.1330   61.1661 H           1 MOL       0.0664
     27 H7         29.4470   17.9030   60.6078 H           1 MOL       0.1859
     28 H8         31.8008   15.8247   62.2498 H           1 MOL       0.0467
     29 H9         31.8340   17.2640   61.1965 H           1 MOL       0.0467
     30 H10        30.8761   15.8257   60.7269 H           1 MOL       0.0467
     31 H11        27.1298   17.0280   63.2844 H           1 MOL       0.0698
     32 H12        27.0956   15.7964   61.3109 H           1 MOL       0.0650
     33 H13        25.8987   17.9424   59.9209 H           1 MOL       0.2100
     34 H14        25.0090   15.0168   60.9960 H           1 MOL       0.0643
     35 H15        24.2251   17.6702   60.6559 H           1 MOL       0.2100
     36 H16        25.2003   15.8558   63.5904 H           1 MOL       0.0584
     37 H17        23.8231   14.9497   62.9484 H           1 MOL       0.0584
     38 H18        22.6024   16.5738   63.1159 H           1 MOL       0.2095
@<TRIPOS>BOND
     1     4     1   1
     2     1     3  ar
     3     1     2  ar
     4     4    14   1
     5     4     5   2
     6     5     6   1
     7     6     8   1
     8     6     7   1
     9     8    13   1
    10     8     9   1
    11     9    10  am
    12    10    12   1
    13    10    11   2
    14    13    15   1
    15    13    14   1
    16    15    17   1
    17    15    16   1
    18    17    19   1
    19    17    18   1
    20    19    20   1
    21     5    21   1
    22     6    22   1
    23     7    23   1
    24     7    24   1
    25     7    25   1
    26     8    26   1
    27     9    27   1
    28    12    28   1
    29    12    29   1
    30    12    30   1
    31    13    31   1
    32    15    32   1
    33    16    33   1
    34    17    34   1
    35    18    35   1
    36    19    36   1
    37    19    37   1
    38    20    38   1
@<TRIPOS>SUBSTRUCTURE
     1  MOL      1

