@<TRIPOS>MOLECULE
1f8c_ligand_044
    38    38
SMALL
GAST_HUCK
****
This file was generated by PARSER (from files_GN.cpp)

@<TRIPOS>ATOM
      1 C1         24.1062   19.6860   65.3238 C.2         1 MOL       0.0810
      2 O1A        24.8248   18.7096   64.7068 O.co2       1 MOL      -0.5623
      3 O1B        22.7538   19.6441   65.2092 O.co2       1 MOL      -0.5623
      4 C2         24.7450   20.6441   66.0881 C.2         1 MOL       0.1116
      5 C3         24.2149   21.1316   67.2343 C.2         1 MOL      -0.0085
      6 C4         24.9618   22.1008   67.9994 C.3         1 MOL       0.0210
      7 N4         24.6776   23.4276   67.4069 N.4         1 MOL       0.2321
      8 C5         26.4977   21.7974   68.0200 C.3         1 MOL       0.1228
      9 N5         26.7611   20.8943   69.0999 N.am        1 MOL      -0.2741
     10 C10        27.5954   21.0798   70.1152 C.2         1 MOL       0.1735
     11 O10        28.2221   22.1263   70.2701 O.2         1 MOL      -0.3974
     12 C11        27.8067   19.9897   71.0352 C.3         1 MOL       0.0257
     13 C6         26.9860   21.1303   66.6564 C.3         1 MOL       0.1349
     14 O6         25.9394   21.1251   65.6631 O.3         1 MOL      -0.3186
     15 C7         28.2723   21.8005   66.0902 C.3         1 MOL       0.1156
     16 O7         27.9697   23.0755   65.5177 O.3         1 MOL      -0.3861
     17 C8         29.0136   20.9910   64.9784 C.3         1 MOL       0.1068
     18 O8         28.8418   19.5836   65.1211 O.3         1 MOL      -0.3869
     19 C9         30.5365   21.3092   64.8985 C.3         1 MOL       0.0727
     20 O9         31.3460   20.3272   65.5525 O.3         1 MOL      -0.3924
     21 H1         23.3566   20.7879   67.5946 H           1 MOL       0.0510
     22 H2         24.5708   22.1561   69.0211 H           1 MOL       0.0996
     23 H3         23.7140   23.7096   67.6225 H           1 MOL       0.2008
     24 H4         24.7925   23.4000   66.3929 H           1 MOL       0.2008
     25 H5         25.3170   24.1300   67.7806 H           1 MOL       0.2008
     26 H6         27.0097   22.7410   68.1859 H           1 MOL       0.0664
     27 H7         26.3255   20.0287   69.0617 H           1 MOL       0.1859
     28 H8         28.5167   20.2536   71.8244 H           1 MOL       0.0467
     29 H9         28.2005   19.1217   70.4923 H           1 MOL       0.0467
     30 H10        26.8559   19.7126   71.5035 H           1 MOL       0.0467
     31 H11        27.2235   20.0841   66.8614 H           1 MOL       0.0698
     32 H12        28.9667   21.9514   66.9242 H           1 MOL       0.0650
     33 H13        27.6338   23.6445   66.2400 H           1 MOL       0.2100
     34 H14        28.5820   21.2519   64.0165 H           1 MOL       0.0643
     35 H15        29.2783   19.3492   65.9619 H           1 MOL       0.2100
     36 H16        30.7705   22.2810   65.3685 H           1 MOL       0.0584
     37 H17        30.8737   21.3735   63.8449 H           1 MOL       0.0584
     38 H18        31.3602   19.5629   64.9354 H           1 MOL       0.2095
@<TRIPOS>BOND
     1     4     1   1
     2     1     3  ar
     3     1     2  ar
     4     4    14   1
     5     4     5   2
     6     5     6   1
     7     6     8   1
     8     6     7   1
     9     8    13   1
    10     8     9   1
    11     9    10  am
    12    10    12   1
    13    10    11   2
    14    13    15   1
    15    13    14   1
    16    15    17   1
    17    15    16   1
    18    17    19   1
    19    17    18   1
    20    19    20   1
    21     5    21   1
    22     6    22   1
    23     7    23   1
    24     7    24   1
    25     7    25   1
    26     8    26   1
    27     9    27   1
    28    12    28   1
    29    12    29   1
    30    12    30   1
    31    13    31   1
    32    15    32   1
    33    16    33   1
    34    17    34   1
    35    18    35   1
    36    19    36   1
    37    19    37   1
    38    20    38   1
@<TRIPOS>SUBSTRUCTURE
     1  MOL      1

