@<TRIPOS>MOLECULE
1f8c_ligand_077
    38    38
SMALL
GAST_HUCK
****
This file was generated by PARSER (from files_GN.cpp)

@<TRIPOS>ATOM
      1 C1         24.2570   20.2526   65.6856 C.2         1 MOL       0.0810
      2 O1A        24.6432   21.0004   64.6251 O.co2       1 MOL      -0.5623
      3 O1B        23.0604   19.6268   65.5769 O.co2       1 MOL      -0.5623
      4 C2         24.5860   20.7162   66.9323 C.2         1 MOL       0.1116
      5 C3         25.4321   20.0527   67.7401 C.2         1 MOL      -0.0085
      6 C4         25.7397   20.5760   69.0614 C.3         1 MOL       0.0210
      7 N4         24.7840   19.9810   70.0100 N.4         1 MOL       0.2321
      8 C5         25.7061   22.1442   69.1256 C.3         1 MOL       0.1228
      9 N5         27.0114   22.7479   68.9881 N.am        1 MOL      -0.2741
     10 C10        27.9419   22.5282   68.0629 C.2         1 MOL       0.1735
     11 O10        27.7847   21.7246   67.1549 O.2         1 MOL      -0.3974
     12 C11        29.1867   23.2587   68.1342 C.3         1 MOL       0.0257
     13 C6         24.6616   22.7679   68.1165 C.3         1 MOL       0.1349
     14 O6         23.9066   21.7777   67.3851 O.3         1 MOL      -0.3186
     15 C7         23.6487   23.7895   68.7313 C.3         1 MOL       0.1156
     16 O7         24.3857   24.7263   69.5217 O.3         1 MOL      -0.3861
     17 C8         22.4622   23.1989   69.5642 C.3         1 MOL       0.1068
     18 O8         21.6902   22.2648   68.8087 O.3         1 MOL      -0.3869
     19 C9         21.4701   24.2923   70.0467 C.3         1 MOL       0.0727
     20 O9         20.4331   23.7383   70.8547 O.3         1 MOL      -0.3924
     21 H1         25.9020   19.2293   67.4233 H           1 MOL       0.0510
     22 H2         26.7249   20.2158   69.3705 H           1 MOL       0.0996
     23 H3         24.8416   18.9601   69.9625 H           1 MOL       0.2008
     24 H4         23.8329   20.2747   69.7764 H           1 MOL       0.2008
     25 H5         25.0053   20.2804   70.9605 H           1 MOL       0.2008
     26 H6         25.4106   22.4016   70.1386 H           1 MOL       0.0664
     27 H7         27.2480   23.4068   69.6645 H           1 MOL       0.1859
     28 H8         29.9153   22.8847   67.4129 H           1 MOL       0.0467
     29 H9         29.6199   23.1680   69.1311 H           1 MOL       0.0467
     30 H10        29.0007   24.3103   67.9211 H           1 MOL       0.0467
     31 H11        25.2233   23.3209   67.3475 H           1 MOL       0.0698
     32 H12        23.2176   24.3539   67.9009 H           1 MOL       0.0650
     33 H13        24.3493   24.3805   70.4417 H           1 MOL       0.2100
     34 H14        22.8498   22.6754   70.4429 H           1 MOL       0.0643
     35 H15        22.2617   21.4777   68.6925 H           1 MOL       0.2100
     36 H16        21.0029   24.7837   69.1878 H           1 MOL       0.0584
     37 H17        21.9954   25.0494   70.6356 H           1 MOL       0.0584
     38 H18        20.8864   23.3912   71.6519 H           1 MOL       0.2095
@<TRIPOS>BOND
     1     4     1   1
     2     1     3  ar
     3     1     2  ar
     4     4    14   1
     5     4     5   2
     6     5     6   1
     7     6     8   1
     8     6     7   1
     9     8    13   1
    10     8     9   1
    11     9    10  am
    12    10    12   1
    13    10    11   2
    14    13    15   1
    15    13    14   1
    16    15    17   1
    17    15    16   1
    18    17    19   1
    19    17    18   1
    20    19    20   1
    21     5    21   1
    22     6    22   1
    23     7    23   1
    24     7    24   1
    25     7    25   1
    26     8    26   1
    27     9    27   1
    28    12    28   1
    29    12    29   1
    30    12    30   1
    31    13    31   1
    32    15    32   1
    33    16    33   1
    34    17    34   1
    35    18    35   1
    36    19    36   1
    37    19    37   1
    38    20    38   1
@<TRIPOS>SUBSTRUCTURE
     1  MOL      1

