@<TRIPOS>MOLECULE
1f8c_ligand_041
    38    38
SMALL
GAST_HUCK
****
This file was generated by PARSER (from files_GN.cpp)

@<TRIPOS>ATOM
      1 C1         24.1679   19.4911   64.2651 C.2         1 MOL       0.0810
      2 O1A        24.2342   20.8426   64.3578 O.co2       1 MOL      -0.5623
      3 O1B        23.2012   18.8735   64.9829 O.co2       1 MOL      -0.5623
      4 C2         25.0806   18.7485   63.5222 C.2         1 MOL       0.1116
      5 C3         26.1957   19.2933   62.9896 C.2         1 MOL      -0.0085
      6 C4         27.1401   18.4699   62.2524 C.3         1 MOL       0.0210
      7 N4         26.7253   18.4755   60.8434 N.4         1 MOL       0.2321
      8 C5         27.2437   17.0095   62.8164 C.3         1 MOL       0.1228
      9 N5         28.3110   16.8646   63.7776 N.am        1 MOL      -0.2741
     10 C10        28.5139   17.5491   64.8957 C.2         1 MOL       0.1735
     11 O10        27.7541   18.4380   65.2680 O.2         1 MOL      -0.3974
     12 C11        29.6521   17.2198   65.7219 C.3         1 MOL       0.0257
     13 C6         25.8485   16.4928   63.3612 C.3         1 MOL       0.1349
     14 O6         24.7682   17.4599   63.2517 O.3         1 MOL      -0.3186
     15 C7         25.3450   15.1380   62.7637 C.3         1 MOL       0.1156
     16 O7         26.3773   14.1585   62.9080 O.3         1 MOL      -0.3861
     17 C8         24.7984   15.1116   61.2959 C.3         1 MOL       0.1068
     18 O8         25.8449   15.3077   60.3471 O.3         1 MOL      -0.3869
     19 C9         23.6411   16.0872   60.9503 C.3         1 MOL       0.0727
     20 O9         23.0355   16.6178   62.1238 O.3         1 MOL      -0.3924
     21 H1         26.4214   20.2551   63.1398 H           1 MOL       0.0510
     22 H2         28.1271   18.9426   62.2827 H           1 MOL       0.0996
     23 H3         26.7381   19.4335   60.4880 H           1 MOL       0.2008
     24 H4         25.7820   18.1006   60.7602 H           1 MOL       0.2008
     25 H5         27.3684   17.9032   60.2935 H           1 MOL       0.2008
     26 H6         27.5579   16.3756   61.9849 H           1 MOL       0.0664
     27 H7         28.9682   16.1822   63.5793 H           1 MOL       0.1859
     28 H8         29.7078   17.8563   66.6108 H           1 MOL       0.0467
     29 H9         30.5757   17.3485   65.1532 H           1 MOL       0.0467
     30 H10        29.5817   16.1807   66.0514 H           1 MOL       0.0467
     31 H11        25.9624   16.3039   64.4372 H           1 MOL       0.0698
     32 H12        24.5260   14.7987   63.4067 H           1 MOL       0.0650
     33 H13        25.9565   13.2998   62.6901 H           1 MOL       0.2100
     34 H14        24.4193   14.0967   61.1256 H           1 MOL       0.0643
     35 H15        25.4097   15.2270   59.4665 H           1 MOL       0.2100
     36 H16        22.8816   15.5675   60.3541 H           1 MOL       0.0584
     37 H17        24.0133   16.9222   60.3539 H           1 MOL       0.0584
     38 H18        22.3192   17.2075   61.7814 H           1 MOL       0.2095
@<TRIPOS>BOND
     1     4     1   1
     2     1     3  ar
     3     1     2  ar
     4     4    14   1
     5     4     5   2
     6     5     6   1
     7     6     8   1
     8     6     7   1
     9     8    13   1
    10     8     9   1
    11     9    10  am
    12    10    12   1
    13    10    11   2
    14    13    15   1
    15    13    14   1
    16    15    17   1
    17    15    16   1
    18    17    19   1
    19    17    18   1
    20    19    20   1
    21     5    21   1
    22     6    22   1
    23     7    23   1
    24     7    24   1
    25     7    25   1
    26     8    26   1
    27     9    27   1
    28    12    28   1
    29    12    29   1
    30    12    30   1
    31    13    31   1
    32    15    32   1
    33    16    33   1
    34    17    34   1
    35    18    35   1
    36    19    36   1
    37    19    37   1
    38    20    38   1
@<TRIPOS>SUBSTRUCTURE
     1  MOL      1

