@<TRIPOS>MOLECULE
1f8c_ligand_007
    38    38
SMALL
GAST_HUCK
****
This file was generated by PARSER (from files_GN.cpp)

@<TRIPOS>ATOM
      1 C1         24.3179   20.0072   64.6495 C.2         1 MOL       0.0810
      2 O1A        23.0613   19.6301   65.0264 O.co2       1 MOL      -0.5623
      3 O1B        24.7236   21.2638   64.9878 O.co2       1 MOL      -0.5623
      4 C2         25.1916   19.1108   64.0755 C.2         1 MOL       0.1116
      5 C3         26.0129   19.4372   63.0551 C.2         1 MOL      -0.0085
      6 C4         26.8354   18.4660   62.3669 C.3         1 MOL       0.0210
      7 N4         26.3947   18.3979   60.9636 N.4         1 MOL       0.2321
      8 C5         26.8547   17.0275   63.0077 C.3         1 MOL       0.1228
      9 N5         27.9635   16.9698   63.9220 N.am        1 MOL      -0.2741
     10 C10        29.0150   16.1653   63.8532 C.2         1 MOL       0.1735
     11 O10        29.1602   15.3506   62.9483 O.2         1 MOL      -0.3974
     12 C11        30.0325   16.2537   64.8816 C.3         1 MOL       0.0257
     13 C6         25.5393   16.7372   63.7990 C.3         1 MOL       0.1349
     14 O6         25.2390   17.8753   64.6328 O.3         1 MOL      -0.3186
     15 C7         24.2641   16.3264   62.9731 C.3         1 MOL       0.1156
     16 O7         23.1405   16.7821   63.7327 O.3         1 MOL      -0.3861
     17 C8         24.0425   14.8241   62.5198 C.3         1 MOL       0.1068
     18 O8         22.8990   14.2369   63.1828 O.3         1 MOL      -0.3869
     19 C9         25.2160   13.7748   62.5865 C.3         1 MOL       0.0727
     20 O9         25.7532   13.5030   61.2914 O.3         1 MOL      -0.3924
     21 H1         25.9858   20.3718   62.6774 H           1 MOL       0.0510
     22 H2         27.8538   18.8671   62.3332 H           1 MOL       0.0996
     23 H3         26.5381   19.3103   60.5128 H           1 MOL       0.2008
     24 H4         25.4044   18.1528   60.9109 H           1 MOL       0.2008
     25 H5         26.9463   17.6979   60.4609 H           1 MOL       0.2008
     26 H6         26.9653   16.2897   62.2206 H           1 MOL       0.0664
     27 H7         27.9540   17.5926   64.6672 H           1 MOL       0.1859
     28 H8         30.8366   15.5262   64.7199 H           1 MOL       0.0467
     29 H9         29.5861   16.0589   65.8612 H           1 MOL       0.0467
     30 H10        30.4710   17.2564   64.8840 H           1 MOL       0.0467
     31 H11        25.7249   15.9177   64.4981 H           1 MOL       0.0698
     32 H12        24.2608   16.9406   62.0714 H           1 MOL       0.0650
     33 H13        22.3514   16.4808   63.2473 H           1 MOL       0.2100
     34 H14        23.7200   14.8549   61.4722 H           1 MOL       0.0643
     35 H15        23.1075   14.2987   64.1345 H           1 MOL       0.2100
     36 H16        24.8472   12.8127   62.9792 H           1 MOL       0.0584
     37 H17        26.0224   14.1221   63.2414 H           1 MOL       0.0584
     38 H18        25.0832   12.8970   60.8735 H           1 MOL       0.2095
@<TRIPOS>BOND
     1     4     1   1
     2     1     3  ar
     3     1     2  ar
     4     4    14   1
     5     4     5   2
     6     5     6   1
     7     6     8   1
     8     6     7   1
     9     8    13   1
    10     8     9   1
    11     9    10  am
    12    10    12   1
    13    10    11   2
    14    13    15   1
    15    13    14   1
    16    15    17   1
    17    15    16   1
    18    17    19   1
    19    17    18   1
    20    19    20   1
    21     5    21   1
    22     6    22   1
    23     7    23   1
    24     7    24   1
    25     7    25   1
    26     8    26   1
    27     9    27   1
    28    12    28   1
    29    12    29   1
    30    12    30   1
    31    13    31   1
    32    15    32   1
    33    16    33   1
    34    17    34   1
    35    18    35   1
    36    19    36   1
    37    19    37   1
    38    20    38   1
@<TRIPOS>SUBSTRUCTURE
     1  MOL      1

