@<TRIPOS>MOLECULE
1f8d_ligand_020
    38    38
SMALL
GAST_HUCK
****
This file was generated by PARSER (from files_GN.cpp)

@<TRIPOS>ATOM
      1 C1         25.2274   19.6451   64.1458 C.2         1 MOL       0.0809
      2 C2         26.1800   19.4779   63.1702 C.2         1 MOL       0.1088
      3 C3         27.2463   20.2871   63.0107 C.2         1 MOL      -0.0276
      4 C4         28.1667   20.0377   61.9125 C.3         1 MOL       0.1003
      5 C5         28.4654   18.5068   61.7483 C.3         1 MOL       0.1064
      6 C6         27.1427   17.6552   61.9559 C.3         1 MOL       0.1322
      7 C7         26.7385   16.7749   60.7199 C.3         1 MOL       0.1183
      8 C8         27.3210   15.3063   60.7441 C.3         1 MOL       0.1232
      9 C9         26.2772   14.1473   60.7496 C.3         1 MOL      -0.0062
     10 C10        30.6241   17.4867   62.4126 C.2         1 MOL       0.1734
     11 C11        31.6413   17.3710   63.4418 C.3         1 MOL       0.0257
     12 N5         29.5085   18.1573   62.6872 N.am        1 MOL      -0.2770
     13 O1A        24.6983   18.5650   64.7671 O.co2       1 MOL      -0.5623
     14 O1B        24.6372   20.8419   64.3969 O.co2       1 MOL      -0.5623
     15 O4         27.5959   20.5507   60.7035 O.3         1 MOL      -0.3807
     16 O6         25.9935   18.4793   62.2878 O.3         1 MOL      -0.3189
     17 O7         25.3097   16.7553   60.5571 O.3         1 MOL      -0.3860
     18 O8         28.2199   15.1233   59.6366 O.3         1 MOL      -0.3838
     19 N9         25.9211   13.6992   59.3964 N.4         1 MOL       0.2204
     20 O10        30.8393   17.0116   61.2982 O.2         1 MOL      -0.3974
     21 H1         27.4746   20.9743   63.6928 H           1 MOL       0.0480
     22 H2         29.0973   20.5867   62.0748 H           1 MOL       0.0740
     23 H3         28.8662   18.3704   60.7337 H           1 MOL       0.0632
     24 H4         27.2655   16.9974   62.8259 H           1 MOL       0.0697
     25 H5         27.0888   17.2743   59.8078 H           1 MOL       0.0652
     26 H6         27.9219   15.1749   61.6507 H           1 MOL       0.0674
     27 H7         25.3678   14.4630   61.2803 H           1 MOL       0.0840
     28 H8         26.6977   13.2877   61.2934 H           1 MOL       0.0840
     29 H9         32.5016   16.7971   63.0715 H           1 MOL       0.0467
     30 H10        31.2248   16.8585   64.3204 H           1 MOL       0.0467
     31 H11        31.9857   18.3751   63.7264 H           1 MOL       0.0467
     32 H12        29.4351   18.5326   63.5857 H           1 MOL       0.1858
     33 H13        26.9730   19.8647   60.3903 H           1 MOL       0.2127
     34 H14        25.0892   17.6132   60.1288 H           1 MOL       0.2100
     35 H15        28.6780   14.2705   59.8295 H           1 MOL       0.2101
     36 H16        25.2186   12.9513   59.4725 H           1 MOL       0.1995
     37 H17        26.7704   13.3415   58.9370 H           1 MOL       0.1995
     38 H18        25.5294   14.4753   58.8412 H           1 MOL       0.1995
@<TRIPOS>BOND
     1     1    14  ar
     2     1    13  ar
     3     1     2   1
     4     2    16   1
     5     2     3   2
     6     3     4   1
     7     4    15   1
     8     4     5   1
     9     5    12   1
    10     5     6   1
    11     6    16   1
    12     6     7   1
    13     7    17   1
    14     7     8   1
    15     8    18   1
    16     8     9   1
    17     9    19   1
    18    12    10  am
    19    10    20   2
    20    10    11   1
    21     3    21   1
    22     4    22   1
    23     5    23   1
    24     6    24   1
    25     7    25   1
    26     8    26   1
    27     9    27   1
    28     9    28   1
    29    11    29   1
    30    11    30   1
    31    11    31   1
    32    12    32   1
    33    15    33   1
    34    17    34   1
    35    18    35   1
    36    19    36   1
    37    19    37   1
    38    19    38   1
@<TRIPOS>SUBSTRUCTURE
     1  MOL      1

