@<TRIPOS>MOLECULE
1f8d_ligand_014
    38    38
SMALL
GAST_HUCK
****
This file was generated by PARSER (from files_GN.cpp)

@<TRIPOS>ATOM
      1 C1         23.8501   20.0322   64.9315 C.2         1 MOL       0.0809
      2 C2         25.1734   19.6785   65.1151 C.2         1 MOL       0.1088
      3 C3         25.5529   18.4430   65.4932 C.2         1 MOL      -0.0276
      4 C4         26.9496   18.0783   65.6948 C.3         1 MOL       0.1003
      5 C5         27.9840   19.1955   65.3342 C.3         1 MOL       0.1064
      6 C6         27.3514   20.6132   65.5237 C.3         1 MOL       0.1322
      7 C7         27.2184   21.1091   67.0015 C.3         1 MOL       0.1183
      8 C8         28.4702   21.8402   67.5817 C.3         1 MOL       0.1232
      9 C9         29.0059   23.0309   66.7235 C.3         1 MOL      -0.0062
     10 C10        29.6026   19.1198   63.4523 C.2         1 MOL       0.1734
     11 C11        29.7728   19.0074   62.0211 C.3         1 MOL       0.0257
     12 N5         28.3742   19.0695   63.9550 N.am        1 MOL      -0.2770
     13 O1A        23.5201   21.0183   64.0633 O.co2       1 MOL      -0.5623
     14 O1B        22.8340   19.4689   65.6259 O.co2       1 MOL      -0.5623
     15 O4         27.1086   17.6785   67.0559 O.3         1 MOL      -0.3807
     16 O6         26.0813   20.6368   64.8439 O.3         1 MOL      -0.3189
     17 O7         26.0607   21.9398   67.1624 O.3         1 MOL      -0.3860
     18 O8         28.1312   22.3210   68.8870 O.3         1 MOL      -0.3838
     19 N9         30.2804   22.7122   66.0587 N.4         1 MOL       0.2204
     20 O10        30.5908   19.2915   64.1569 O.2         1 MOL      -0.3974
     21 H1         24.8682   17.7443   65.6692 H           1 MOL       0.0480
     22 H2         27.1578   17.1904   65.0893 H           1 MOL       0.0740
     23 H3         28.8591   19.1072   65.9852 H           1 MOL       0.0632
     24 H4         27.9672   21.3411   64.9915 H           1 MOL       0.0697
     25 H5         27.0304   20.2450   67.6369 H           1 MOL       0.0652
     26 H6         29.2728   21.1100   67.7253 H           1 MOL       0.0674
     27 H7         29.1675   23.9242   67.3370 H           1 MOL       0.0840
     28 H8         28.2917   23.3072   65.9376 H           1 MOL       0.0840
     29 H9         30.8253   19.0826   61.7271 H           1 MOL       0.0467
     30 H10        29.2217   19.8080   61.5193 H           1 MOL       0.0467
     31 H11        29.3896   18.0429   61.6754 H           1 MOL       0.0467
     32 H12        27.6564   18.9712   63.3111 H           1 MOL       0.1858
     33 H13        26.7037   16.7853   67.1013 H           1 MOL       0.2127
     34 H14        26.3481   22.8698   67.0455 H           1 MOL       0.2100
     35 H15        28.9815   22.6032   69.3004 H           1 MOL       0.2101
     36 H16        30.5078   23.4218   65.3491 H           1 MOL       0.1995
     37 H17        30.2203   21.7980   65.5984 H           1 MOL       0.1995
     38 H18        31.0303   22.6894   66.7567 H           1 MOL       0.1995
@<TRIPOS>BOND
     1     1    14  ar
     2     1    13  ar
     3     1     2   1
     4     2    16   1
     5     2     3   2
     6     3     4   1
     7     4    15   1
     8     4     5   1
     9     5    12   1
    10     5     6   1
    11     6    16   1
    12     6     7   1
    13     7    17   1
    14     7     8   1
    15     8    18   1
    16     8     9   1
    17     9    19   1
    18    12    10  am
    19    10    20   2
    20    10    11   1
    21     3    21   1
    22     4    22   1
    23     5    23   1
    24     6    24   1
    25     7    25   1
    26     8    26   1
    27     9    27   1
    28     9    28   1
    29    11    29   1
    30    11    30   1
    31    11    31   1
    32    12    32   1
    33    15    33   1
    34    17    34   1
    35    18    35   1
    36    19    36   1
    37    19    37   1
    38    19    38   1
@<TRIPOS>SUBSTRUCTURE
     1  MOL      1

