@<TRIPOS>MOLECULE
1f8d_ligand_053
    38    38
SMALL
GAST_HUCK
****
This file was generated by PARSER (from files_GN.cpp)

@<TRIPOS>ATOM
      1 C1         24.2428   18.4910   66.3767 C.2         1 MOL       0.0809
      2 C2         24.9791   18.5885   65.2265 C.2         1 MOL       0.1088
      3 C3         26.1397   19.2711   65.1704 C.2         1 MOL      -0.0276
      4 C4         26.9366   19.3448   63.9497 C.3         1 MOL       0.1003
      5 C5         26.2060   18.7983   62.6771 C.3         1 MOL       0.1064
      6 C6         25.3578   17.5555   63.0941 C.3         1 MOL       0.1322
      7 C7         24.5525   16.8721   61.9470 C.3         1 MOL       0.1183
      8 C8         25.4266   15.9874   60.9767 C.3         1 MOL       0.1232
      9 C9         24.9098   14.5385   60.7448 C.3         1 MOL      -0.0062
     10 C10        27.4625   19.2255   60.5979 C.2         1 MOL       0.1734
     11 C11        28.5187   18.7736   59.7327 C.3         1 MOL       0.0257
     12 N5         27.1850   18.5044   61.6794 N.am        1 MOL      -0.2770
     13 O1A        24.8118   18.2821   67.5974 O.co2       1 MOL      -0.5623
     14 O1B        22.8866   18.5778   66.3217 O.co2       1 MOL      -0.5623
     15 O4         27.3308   20.6975   63.7057 O.3         1 MOL      -0.3807
     16 O6         24.4400   18.0166   64.1142 O.3         1 MOL      -0.3189
     17 O7         23.5065   16.1162   62.5484 O.3         1 MOL      -0.3860
     18 O8         25.5816   16.6445   59.7191 O.3         1 MOL      -0.3838
     19 N9         25.6077   13.8630   59.6393 N.4         1 MOL       0.2204
     20 O10        26.8775   20.2737   60.3394 O.2         1 MOL      -0.3974
     21 H1         26.5117   19.6904   65.9950 H           1 MOL       0.0480
     22 H2         27.8455   18.7627   64.1250 H           1 MOL       0.0740
     23 H3         25.5036   19.5651   62.3312 H           1 MOL       0.0632
     24 H4         26.0126   16.7970   63.5441 H           1 MOL       0.0697
     25 H5         24.0576   17.6568   61.3685 H           1 MOL       0.0652
     26 H6         26.4336   15.8844   61.3837 H           1 MOL       0.0674
     27 H7         23.8507   14.5428   60.4911 H           1 MOL       0.0840
     28 H8         25.0502   13.9440   61.6537 H           1 MOL       0.0840
     29 H9         28.6740   19.4551   58.8891 H           1 MOL       0.0467
     30 H10        28.2723   17.7835   59.3334 H           1 MOL       0.0467
     31 H11        29.4512   18.7039   60.3013 H           1 MOL       0.0467
     32 H12        27.7355   17.7204   61.8242 H           1 MOL       0.1858
     33 H13        28.0510   20.8767   64.3448 H           1 MOL       0.2127
     34 H14        22.8018   16.0392   61.8631 H           1 MOL       0.2100
     35 H15        24.8380   16.3522   59.1592 H           1 MOL       0.2101
     36 H16        25.2545   12.9063   59.5564 H           1 MOL       0.1995
     37 H17        26.6150   13.8479   59.8160 H           1 MOL       0.1995
     38 H18        25.4066   14.3648   58.7757 H           1 MOL       0.1995
@<TRIPOS>BOND
     1     1    14  ar
     2     1    13  ar
     3     1     2   1
     4     2    16   1
     5     2     3   2
     6     3     4   1
     7     4    15   1
     8     4     5   1
     9     5    12   1
    10     5     6   1
    11     6    16   1
    12     6     7   1
    13     7    17   1
    14     7     8   1
    15     8    18   1
    16     8     9   1
    17     9    19   1
    18    12    10  am
    19    10    20   2
    20    10    11   1
    21     3    21   1
    22     4    22   1
    23     5    23   1
    24     6    24   1
    25     7    25   1
    26     8    26   1
    27     9    27   1
    28     9    28   1
    29    11    29   1
    30    11    30   1
    31    11    31   1
    32    12    32   1
    33    15    33   1
    34    17    34   1
    35    18    35   1
    36    19    36   1
    37    19    37   1
    38    19    38   1
@<TRIPOS>SUBSTRUCTURE
     1  MOL      1

