@<TRIPOS>MOLECULE
1f8d_ligand_029
    38    38
SMALL
GAST_HUCK
****
This file was generated by PARSER (from files_GN.cpp)

@<TRIPOS>ATOM
      1 C1         27.8993   18.0776   59.1759 C.2         1 MOL       0.0809
      2 C2         28.2980   17.5088   60.3795 C.2         1 MOL       0.1088
      3 C3         29.2162   18.0739   61.1774 C.2         1 MOL      -0.0276
      4 C4         29.6183   17.4020   62.4076 C.3         1 MOL       0.1003
      5 C5         28.4531   16.6123   63.1130 C.3         1 MOL       0.1064
      6 C6         27.2371   16.3831   62.1423 C.3         1 MOL       0.1322
      7 C7         26.3747   15.1308   62.4925 C.3         1 MOL       0.1183
      8 C8         25.0869   14.8597   61.6443 C.3         1 MOL       0.1232
      9 C9         24.2773   16.0957   61.1616 C.3         1 MOL      -0.0062
     10 C10        28.0417   16.9246   65.5465 C.2         1 MOL       0.1734
     11 C11        27.5555   17.8083   66.5792 C.3         1 MOL       0.0257
     12 N5         28.0084   17.3315   64.2815 N.am        1 MOL      -0.2770
     13 O1A        27.0748   17.4077   58.3400 O.co2       1 MOL      -0.5623
     14 O1B        28.3572   19.2737   58.7516 O.co2       1 MOL      -0.5623
     15 O4         30.6674   16.5130   62.0215 O.3         1 MOL      -0.3807
     16 O6         27.7067   16.3465   60.7675 O.3         1 MOL      -0.3189
     17 O7         27.1855   13.9540   62.4669 O.3         1 MOL      -0.3860
     18 O8         25.4002   14.0015   60.5420 O.3         1 MOL      -0.3838
     19 N9         24.8455   16.7178   59.9598 N.4         1 MOL       0.2204
     20 O10        28.4688   15.8220   65.8578 O.2         1 MOL      -0.3974
     21 H1         29.6558   18.9319   60.9367 H           1 MOL       0.0480
     22 H2         30.0601   18.1365   63.0883 H           1 MOL       0.0740
     23 H3         28.8640   15.6402   63.4116 H           1 MOL       0.0632
     24 H4         26.5618   17.2427   62.2271 H           1 MOL       0.0697
     25 H5         26.0554   15.2532   63.5333 H           1 MOL       0.0652
     26 H6         24.4161   14.2857   62.2963 H           1 MOL       0.0674
     27 H7         24.2241   16.8472   61.9511 H           1 MOL       0.0840
     28 H8         23.2635   15.7947   60.9102 H           1 MOL       0.0840
     29 H9         27.6356   17.3527   67.5696 H           1 MOL       0.0467
     30 H10        26.5074   18.0527   66.3986 H           1 MOL       0.0467
     31 H11        28.1407   18.7287   66.5785 H           1 MOL       0.0467
     32 H12        27.6433   18.2162   64.1273 H           1 MOL       0.1858
     33 H13        31.0100   16.1382   62.8592 H           1 MOL       0.2127
     34 H14        27.4323   13.8209   61.5241 H           1 MOL       0.2100
     35 H15        24.7194   13.3006   60.5262 H           1 MOL       0.2101
     36 H16        24.3760   17.5936   59.7499 H           1 MOL       0.1995
     37 H17        24.7340   16.0881   59.1699 H           1 MOL       0.1995
     38 H18        25.8353   16.9080   60.0968 H           1 MOL       0.1995
@<TRIPOS>BOND
     1     1    14  ar
     2     1    13  ar
     3     1     2   1
     4     2    16   1
     5     2     3   2
     6     3     4   1
     7     4    15   1
     8     4     5   1
     9     5    12   1
    10     5     6   1
    11     6    16   1
    12     6     7   1
    13     7    17   1
    14     7     8   1
    15     8    18   1
    16     8     9   1
    17     9    19   1
    18    12    10  am
    19    10    20   2
    20    10    11   1
    21     3    21   1
    22     4    22   1
    23     5    23   1
    24     6    24   1
    25     7    25   1
    26     8    26   1
    27     9    27   1
    28     9    28   1
    29    11    29   1
    30    11    30   1
    31    11    31   1
    32    12    32   1
    33    15    33   1
    34    17    34   1
    35    18    35   1
    36    19    36   1
    37    19    37   1
    38    19    38   1
@<TRIPOS>SUBSTRUCTURE
     1  MOL      1

