@<TRIPOS>MOLECULE
1f8d_ligand_068
    38    38
SMALL
GAST_HUCK
****
This file was generated by PARSER (from files_GN.cpp)

@<TRIPOS>ATOM
      1 C1         25.0675   18.8032   69.7156 C.2         1 MOL       0.0809
      2 C2         25.2343   19.9212   68.9130 C.2         1 MOL       0.1088
      3 C3         24.6792   21.1146   69.2120 C.2         1 MOL      -0.0276
      4 C4         24.8147   22.2895   68.3601 C.3         1 MOL       0.1003
      5 C5         25.7846   22.1065   67.1450 C.3         1 MOL       0.1064
      6 C6         25.8307   20.6143   66.6799 C.3         1 MOL       0.1322
      7 C7         24.6629   20.1255   65.7608 C.3         1 MOL       0.1183
      8 C8         24.6022   18.5846   65.5144 C.3         1 MOL       0.1232
      9 C9         25.7784   17.9792   64.6910 C.3         1 MOL      -0.0062
     10 C10        28.1003   22.8800   66.7460 C.2         1 MOL       0.1734
     11 C11        29.3868   23.1613   67.3350 C.3         1 MOL       0.0257
     12 N5         27.1096   22.5047   67.5442 N.am        1 MOL      -0.2770
     13 O1A        25.8741   17.7267   69.5720 O.co2       1 MOL      -0.5623
     14 O1B        24.0649   18.6978   70.6215 O.co2       1 MOL      -0.5623
     15 O4         23.5075   22.6506   67.9194 O.3         1 MOL      -0.3807
     16 O6         26.0439   19.7723   67.8388 O.3         1 MOL      -0.3189
     17 O7         23.3758   20.5272   66.2398 O.3         1 MOL      -0.3860
     18 O8         24.4470   17.9087   66.7620 O.3         1 MOL      -0.3838
     19 N9         26.9516   17.6158   65.5023 N.4         1 MOL       0.2204
     20 O10        27.9556   22.9914   65.5347 O.2         1 MOL      -0.3974
     21 H1         24.1081   21.2097   70.0219 H           1 MOL       0.0480
     22 H2         25.1646   23.1192   68.9831 H           1 MOL       0.0740
     23 H3         25.4473   22.7489   66.3271 H           1 MOL       0.0632
     24 H4         26.7292   20.4981   66.0705 H           1 MOL       0.0697
     25 H5         24.7868   20.6106   64.7885 H           1 MOL       0.0652
     26 H6         23.6874   18.3948   64.9418 H           1 MOL       0.0674
     27 H7         26.0943   18.6720   63.9073 H           1 MOL       0.0840
     28 H8         25.4319   17.0630   64.2042 H           1 MOL       0.0840
     29 H9         30.1233   23.4457   66.5792 H           1 MOL       0.0467
     30 H10        29.7534   22.2717   67.8524 H           1 MOL       0.0467
     31 H11        29.2865   23.9740   68.0581 H           1 MOL       0.0467
     32 H12        27.3106   22.4760   68.4933 H           1 MOL       0.1858
     33 H13        23.5735   23.5910   67.6500 H           1 MOL       0.2127
     34 H14        23.2772   20.1114   67.1222 H           1 MOL       0.2100
     35 H15        24.4456   16.9522   66.5600 H           1 MOL       0.2101
     36 H16        27.7104   17.3028   64.8881 H           1 MOL       0.1995
     37 H17        26.6939   16.8531   66.1306 H           1 MOL       0.1995
     38 H18        27.2693   18.4161   66.0509 H           1 MOL       0.1995
@<TRIPOS>BOND
     1     1    14  ar
     2     1    13  ar
     3     1     2   1
     4     2    16   1
     5     2     3   2
     6     3     4   1
     7     4    15   1
     8     4     5   1
     9     5    12   1
    10     5     6   1
    11     6    16   1
    12     6     7   1
    13     7    17   1
    14     7     8   1
    15     8    18   1
    16     8     9   1
    17     9    19   1
    18    12    10  am
    19    10    20   2
    20    10    11   1
    21     3    21   1
    22     4    22   1
    23     5    23   1
    24     6    24   1
    25     7    25   1
    26     8    26   1
    27     9    27   1
    28     9    28   1
    29    11    29   1
    30    11    30   1
    31    11    31   1
    32    12    32   1
    33    15    33   1
    34    17    34   1
    35    18    35   1
    36    19    36   1
    37    19    37   1
    38    19    38   1
@<TRIPOS>SUBSTRUCTURE
     1  MOL      1

