@<TRIPOS>MOLECULE
1f8d_ligand_076
    38    38
SMALL
GAST_HUCK
****
This file was generated by PARSER (from files_GN.cpp)

@<TRIPOS>ATOM
      1 C1         27.6979   20.3678   64.6360 C.2         1 MOL       0.0809
      2 C2         27.7039   19.3284   63.7230 C.2         1 MOL       0.1088
      3 C3         28.7287   19.1214   62.8672 C.2         1 MOL      -0.0276
      4 C4         28.7525   18.0125   61.9254 C.3         1 MOL       0.1003
      5 C5         27.3904   17.2667   61.7649 C.3         1 MOL       0.1064
      6 C6         26.6525   17.2329   63.1424 C.3         1 MOL       0.1322
      7 C7         25.2033   16.6443   63.1504 C.3         1 MOL       0.1183
      8 C8         24.1025   17.4905   62.4013 C.3         1 MOL       0.1232
      9 C9         23.4793   16.8502   61.1316 C.3         1 MOL      -0.0062
     10 C10        27.6552   15.5401   60.0116 C.2         1 MOL       0.1734
     11 C11        27.8528   14.1398   59.7335 C.3         1 MOL       0.0257
     12 N5         27.6304   15.9417   61.2756 N.am        1 MOL      -0.2770
     13 O1A        26.6246   20.5700   65.4409 O.co2       1 MOL      -0.5623
     14 O1B        28.7310   21.2385   64.7734 O.co2       1 MOL      -0.5623
     15 O4         29.1779   18.4929   60.6496 O.3         1 MOL      -0.3807
     16 O6         26.5869   18.5711   63.6757 O.3         1 MOL      -0.3189
     17 O7         25.2204   15.2833   62.7245 O.3         1 MOL      -0.3860
     18 O8         23.0326   17.8221   63.2926 O.3         1 MOL      -0.3838
     19 N9         24.4645   16.6873   60.0617 N.4         1 MOL       0.2204
     20 O10        27.4841   16.3181   59.0818 O.2         1 MOL      -0.3974
     21 H1         29.5432   19.6938   62.9174 H           1 MOL       0.0480
     22 H2         29.5121   17.3112   62.2854 H           1 MOL       0.0740
     23 H3         26.7691   17.8408   61.0723 H           1 MOL       0.0632
     24 H4         27.2577   16.6279   63.8295 H           1 MOL       0.0697
     25 H5         24.9140   16.6071   64.2056 H           1 MOL       0.0652
     26 H6         24.5341   18.4457   62.1052 H           1 MOL       0.0674
     27 H7         22.6819   17.4900   60.7506 H           1 MOL       0.0840
     28 H8         23.0433   15.8785   61.3725 H           1 MOL       0.0840
     29 H9         27.7962   13.9240   58.6618 H           1 MOL       0.0467
     30 H10        27.0810   13.5524   60.2410 H           1 MOL       0.0467
     31 H11        28.8353   13.8282   60.0990 H           1 MOL       0.0467
     32 H12        27.8041   15.2576   61.9402 H           1 MOL       0.1858
     33 H13        30.0577   18.8992   60.8068 H           1 MOL       0.2127
     34 H14        25.8211   14.8307   63.3504 H           1 MOL       0.2100
     35 H15        22.4554   17.0280   63.3500 H           1 MOL       0.2101
     36 H16        24.0539   16.2145   59.2584 H           1 MOL       0.1995
     37 H17        25.2462   16.1361   60.4150 H           1 MOL       0.1995
     38 H18        24.7875   17.6113   59.7701 H           1 MOL       0.1995
@<TRIPOS>BOND
     1     1    14  ar
     2     1    13  ar
     3     1     2   1
     4     2    16   1
     5     2     3   2
     6     3     4   1
     7     4    15   1
     8     4     5   1
     9     5    12   1
    10     5     6   1
    11     6    16   1
    12     6     7   1
    13     7    17   1
    14     7     8   1
    15     8    18   1
    16     8     9   1
    17     9    19   1
    18    12    10  am
    19    10    20   2
    20    10    11   1
    21     3    21   1
    22     4    22   1
    23     5    23   1
    24     6    24   1
    25     7    25   1
    26     8    26   1
    27     9    27   1
    28     9    28   1
    29    11    29   1
    30    11    30   1
    31    11    31   1
    32    12    32   1
    33    15    33   1
    34    17    34   1
    35    18    35   1
    36    19    36   1
    37    19    37   1
    38    19    38   1
@<TRIPOS>SUBSTRUCTURE
     1  MOL      1

