@<TRIPOS>MOLECULE
1f8d_ligand_031
    38    38
SMALL
GAST_HUCK
****
This file was generated by PARSER (from files_GN.cpp)

@<TRIPOS>ATOM
      1 C1         24.5911   21.6520   66.8720 C.2         1 MOL       0.0809
      2 C2         24.0936   20.3691   66.7828 C.2         1 MOL       0.1088
      3 C3         24.6920   19.4078   66.0501 C.2         1 MOL      -0.0276
      4 C4         24.0629   18.1122   65.9287 C.3         1 MOL       0.1003
      5 C5         23.4108   17.6459   67.2710 C.3         1 MOL       0.1064
      6 C6         22.8679   18.8505   68.1414 C.3         1 MOL       0.1322
      7 C7         21.4163   18.7147   68.6893 C.3         1 MOL       0.1183
      8 C8         21.0348   17.3129   69.2809 C.3         1 MOL       0.1232
      9 C9         19.7957   17.3244   70.2150 C.3         1 MOL      -0.0062
     10 C10        25.4503   17.0091   68.5533 C.2         1 MOL       0.1734
     11 C11        26.0529   16.0069   69.3999 C.3         1 MOL       0.0257
     12 N5         24.2479   16.7669   68.0460 N.am        1 MOL      -0.2770
     13 O1A        24.1144   22.5053   67.8119 O.co2       1 MOL      -0.5623
     14 O1B        25.4044   22.1515   65.9139 O.co2       1 MOL      -0.5623
     15 O4         23.0514   18.2418   64.9228 O.3         1 MOL      -0.3807
     16 O6         22.9203   20.0959   67.3936 O.3         1 MOL      -0.3189
     17 O7         21.2537   19.7210   69.7003 O.3         1 MOL      -0.3860
     18 O8         20.7577   16.3729   68.2410 O.3         1 MOL      -0.3838
     19 N9         18.7047   18.1655   69.7014 N.4         1 MOL       0.2204
     20 O10        26.0459   18.0593   68.3501 O.2         1 MOL      -0.3974
     21 H1         25.5644   19.5646   65.5921 H           1 MOL       0.0480
     22 H2         24.7849   17.3669   65.5769 H           1 MOL       0.0740
     23 H3         22.5642   17.0301   66.9645 H           1 MOL       0.0632
     24 H4         23.5196   18.9837   69.0128 H           1 MOL       0.0697
     25 H5         20.7121   18.9501   67.8868 H           1 MOL       0.0652
     26 H6         21.8838   16.9340   69.8556 H           1 MOL       0.0674
     27 H7         20.0834   17.7007   71.1970 H           1 MOL       0.0840
     28 H8         19.4167   16.3052   70.3484 H           1 MOL       0.0840
     29 H9         27.0385   16.3207   69.7554 H           1 MOL       0.0467
     30 H10        26.1639   15.0702   68.8491 H           1 MOL       0.0467
     31 H11        25.4114   15.8366   70.2676 H           1 MOL       0.0467
     32 H12        23.8728   15.8923   68.2387 H           1 MOL       0.1858
     33 H13        23.5316   18.4103   64.0818 H           1 MOL       0.2127
     34 H14        21.2655   20.5846   69.2322 H           1 MOL       0.2100
     35 H15        21.0591   15.5066   68.5925 H           1 MOL       0.2101
     36 H16        17.8966   18.0646   70.3161 H           1 MOL       0.1995
     37 H17        18.4528   17.8842   68.7491 H           1 MOL       0.1995
     38 H18        18.9996   19.1403   69.6989 H           1 MOL       0.1995
@<TRIPOS>BOND
     1     1    14  ar
     2     1    13  ar
     3     1     2   1
     4     2    16   1
     5     2     3   2
     6     3     4   1
     7     4    15   1
     8     4     5   1
     9     5    12   1
    10     5     6   1
    11     6    16   1
    12     6     7   1
    13     7    17   1
    14     7     8   1
    15     8    18   1
    16     8     9   1
    17     9    19   1
    18    12    10  am
    19    10    20   2
    20    10    11   1
    21     3    21   1
    22     4    22   1
    23     5    23   1
    24     6    24   1
    25     7    25   1
    26     8    26   1
    27     9    27   1
    28     9    28   1
    29    11    29   1
    30    11    30   1
    31    11    31   1
    32    12    32   1
    33    15    33   1
    34    17    34   1
    35    18    35   1
    36    19    36   1
    37    19    37   1
    38    19    38   1
@<TRIPOS>SUBSTRUCTURE
     1  MOL      1

