@<TRIPOS>MOLECULE
1f8d_ligand_030
    38    38
SMALL
GAST_HUCK
****
This file was generated by PARSER (from files_GN.cpp)

@<TRIPOS>ATOM
      1 C1         27.2310   19.8101   63.9128 C.2         1 MOL       0.0809
      2 C2         26.0712   19.7377   64.6662 C.2         1 MOL       0.1088
      3 C3         25.0620   18.8905   64.4120 C.2         1 MOL      -0.0276
      4 C4         23.8607   18.9435   65.2304 C.3         1 MOL       0.1003
      5 C5         24.2169   19.0789   66.7509 C.3         1 MOL       0.1064
      6 C6         25.4960   19.9871   66.9481 C.3         1 MOL       0.1322
      7 C7         25.3523   21.0944   68.0412 C.3         1 MOL       0.1183
      8 C8         24.4425   22.3072   67.6521 C.3         1 MOL       0.1232
      9 C9         24.3161   23.3397   68.8079 C.3         1 MOL      -0.0062
     10 C10        24.1605   17.3903   68.5691 C.2         1 MOL       0.1734
     11 C11        24.5698   16.0696   68.9963 C.3         1 MOL       0.0257
     12 N5         24.4331   17.7764   67.3204 N.am        1 MOL      -0.2770
     13 O1A        28.1600   20.7509   64.1787 O.co2       1 MOL      -0.5623
     14 O1B        27.5115   18.9189   62.9301 O.co2       1 MOL      -0.5623
     15 O4         23.0986   20.0808   64.8099 O.3         1 MOL      -0.3807
     16 O6         25.9427   20.5928   65.7045 O.3         1 MOL      -0.3189
     17 O7         24.8918   20.4974   69.2522 O.3         1 MOL      -0.3860
     18 O8         24.9602   22.9504   66.4908 O.3         1 MOL      -0.3838
     19 N9         23.9935   24.6888   68.3198 N.4         1 MOL       0.2204
     20 O10        23.6038   18.1312   69.3684 O.2         1 MOL      -0.3974
     21 H1         25.1136   18.2242   63.6756 H           1 MOL       0.0480
     22 H2         23.2457   18.0546   65.0603 H           1 MOL       0.0740
     23 H3         23.3523   19.5378   67.2311 H           1 MOL       0.0632
     24 H4         26.3250   19.3514   67.2879 H           1 MOL       0.0697
     25 H5         26.3524   21.4885   68.2464 H           1 MOL       0.0652
     26 H6         23.4417   21.9494   67.4104 H           1 MOL       0.0674
     27 H7         25.2555   23.4046   69.3569 H           1 MOL       0.0840
     28 H8         23.5281   23.0274   69.4942 H           1 MOL       0.0840
     29 H9         24.4109   15.9314   70.0705 H           1 MOL       0.0467
     30 H10        25.6339   15.9142   68.7856 H           1 MOL       0.0467
     31 H11        23.9858   15.3103   68.4714 H           1 MOL       0.0467
     32 H12        24.9067   17.1348   66.7685 H           1 MOL       0.1858
     33 H13        22.9940   19.9798   63.8378 H           1 MOL       0.2127
     34 H14        25.6180   19.9079   69.5553 H           1 MOL       0.2100
     35 H15        25.7515   23.4412   66.7953 H           1 MOL       0.2101
     36 H16        23.7911   25.3009   69.1152 H           1 MOL       0.1995
     37 H17        23.1958   24.6594   67.6859 H           1 MOL       0.1995
     38 H18        24.8061   25.0449   67.8200 H           1 MOL       0.1995
@<TRIPOS>BOND
     1     1    14  ar
     2     1    13  ar
     3     1     2   1
     4     2    16   1
     5     2     3   2
     6     3     4   1
     7     4    15   1
     8     4     5   1
     9     5    12   1
    10     5     6   1
    11     6    16   1
    12     6     7   1
    13     7    17   1
    14     7     8   1
    15     8    18   1
    16     8     9   1
    17     9    19   1
    18    12    10  am
    19    10    20   2
    20    10    11   1
    21     3    21   1
    22     4    22   1
    23     5    23   1
    24     6    24   1
    25     7    25   1
    26     8    26   1
    27     9    27   1
    28     9    28   1
    29    11    29   1
    30    11    30   1
    31    11    31   1
    32    12    32   1
    33    15    33   1
    34    17    34   1
    35    18    35   1
    36    19    36   1
    37    19    37   1
    38    19    38   1
@<TRIPOS>SUBSTRUCTURE
     1  MOL      1

