@<TRIPOS>MOLECULE
1f8d_ligand_052
    38    38
SMALL
GAST_HUCK
****
This file was generated by PARSER (from files_GN.cpp)

@<TRIPOS>ATOM
      1 C1         22.7683   13.9762   62.3652 C.2         1 MOL       0.0809
      2 C2         23.7433   14.8511   61.9035 C.2         1 MOL       0.1088
      3 C3         24.2818   14.7385   60.6644 C.2         1 MOL      -0.0276
      4 C4         25.2159   15.7239   60.1477 C.3         1 MOL       0.1003
      5 C5         25.7869   16.6930   61.2261 C.3         1 MOL       0.1064
      6 C6         24.6637   17.0300   62.2600 C.3         1 MOL       0.1322
      7 C7         25.1218   17.9430   63.4451 C.3         1 MOL       0.1183
      8 C8         24.1285   17.9060   64.6572 C.3         1 MOL       0.1232
      9 C9         24.6756   18.4864   66.0002 C.3         1 MOL      -0.0062
     10 C10        27.5466   18.1924   60.3536 C.2         1 MOL       0.1734
     11 C11        27.8115   19.3286   59.5043 C.3         1 MOL       0.0257
     12 N5         26.2784   17.8531   60.5512 N.am        1 MOL      -0.2770
     13 O1A        22.3602   14.0457   63.6551 O.co2       1 MOL      -0.5623
     14 O1B        22.1830   13.0177   61.6031 O.co2       1 MOL      -0.5623
     15 O4         26.2984   15.0492   59.4957 O.3         1 MOL      -0.3807
     16 O6         24.1816   15.7770   62.7914 O.3         1 MOL      -0.3189
     17 O7         26.4274   17.5288   63.8746 O.3         1 MOL      -0.3860
     18 O8         22.8933   18.5545   64.3378 O.3         1 MOL      -0.3838
     19 N9         24.0742   17.7870   67.1475 N.4         1 MOL       0.2204
     20 O10        28.4767   17.5410   60.8167 O.2         1 MOL      -0.3974
     21 H1         23.9504   14.0287   60.0321 H           1 MOL       0.0480
     22 H2         24.6724   16.3038   59.3930 H           1 MOL       0.0740
     23 H3         26.5881   16.1606   61.7503 H           1 MOL       0.0632
     24 H4         23.8456   17.5435   61.7441 H           1 MOL       0.0697
     25 H5         25.1999   18.9765   63.0900 H           1 MOL       0.0652
     26 H6         23.8894   16.8548   64.8318 H           1 MOL       0.0674
     27 H7         24.4650   19.5550   66.0757 H           1 MOL       0.0840
     28 H8         25.7537   18.3366   66.0698 H           1 MOL       0.0840
     29 H9         28.8863   19.4683   59.3654 H           1 MOL       0.0467
     30 H10        27.3921   20.2312   59.9570 H           1 MOL       0.0467
     31 H11        27.3532   19.1714   58.5225 H           1 MOL       0.0467
     32 H12        25.6077   18.3983   60.1056 H           1 MOL       0.1858
     33 H13        25.9133   14.7907   58.6333 H           1 MOL       0.2127
     34 H14        26.9065   18.3583   64.1025 H           1 MOL       0.2100
     35 H15        23.0409   19.0127   63.4765 H           1 MOL       0.2101
     36 H16        24.5411   18.0783   68.0153 H           1 MOL       0.1995
     37 H17        24.1965   16.7725   67.0049 H           1 MOL       0.1995
     38 H18        23.0778   18.0157   67.2212 H           1 MOL       0.1995
@<TRIPOS>BOND
     1     1    14  ar
     2     1    13  ar
     3     1     2   1
     4     2    16   1
     5     2     3   2
     6     3     4   1
     7     4    15   1
     8     4     5   1
     9     5    12   1
    10     5     6   1
    11     6    16   1
    12     6     7   1
    13     7    17   1
    14     7     8   1
    15     8    18   1
    16     8     9   1
    17     9    19   1
    18    12    10  am
    19    10    20   2
    20    10    11   1
    21     3    21   1
    22     4    22   1
    23     5    23   1
    24     6    24   1
    25     7    25   1
    26     8    26   1
    27     9    27   1
    28     9    28   1
    29    11    29   1
    30    11    30   1
    31    11    31   1
    32    12    32   1
    33    15    33   1
    34    17    34   1
    35    18    35   1
    36    19    36   1
    37    19    37   1
    38    19    38   1
@<TRIPOS>SUBSTRUCTURE
     1  MOL      1

