@<TRIPOS>MOLECULE
1f8d_ligand_041
    38    38
SMALL
GAST_HUCK
****
This file was generated by PARSER (from files_GN.cpp)

@<TRIPOS>ATOM
      1 C1         24.2724   19.5948   64.5991 C.2         1 MOL       0.0809
      2 C2         23.6823   19.1618   65.7799 C.2         1 MOL       0.1088
      3 C3         23.6050   17.8622   66.1412 C.2         1 MOL      -0.0276
      4 C4         23.2584   17.4574   67.5023 C.3         1 MOL       0.1003
      5 C5         22.8382   18.6298   68.4564 C.3         1 MOL       0.1064
      6 C6         23.5295   19.9614   68.0022 C.3         1 MOL       0.1322
      7 C7         23.0916   21.2444   68.7701 C.3         1 MOL       0.1183
      8 C8         23.8949   22.4981   68.2963 C.3         1 MOL       0.1232
      9 C9         23.2748   23.8812   68.6275 C.3         1 MOL      -0.0062
     10 C10        24.0189   18.3624   70.6370 C.2         1 MOL       0.1734
     11 C11        23.9089   17.8778   71.9951 C.3         1 MOL       0.0257
     12 N5         22.9609   18.2680   69.8414 N.am        1 MOL      -0.2770
     13 O1A        24.5593   20.9080   64.4229 O.co2       1 MOL      -0.5623
     14 O1B        24.8317   18.7321   63.7122 O.co2       1 MOL      -0.5623
     15 O4         22.2046   16.4951   67.4239 O.3         1 MOL      -0.3807
     16 O6         23.2065   20.1242   66.5997 O.3         1 MOL      -0.3189
     17 O7         21.6815   21.4300   68.6042 O.3         1 MOL      -0.3860
     18 O8         25.2076   22.4453   68.8550 O.3         1 MOL      -0.3838
     19 N9         23.8928   24.9362   67.8066 N.4         1 MOL       0.2204
     20 O10        25.0773   18.8642   70.2626 O.2         1 MOL      -0.3974
     21 H1         23.9243   17.1616   65.5152 H           1 MOL       0.0480
     22 H2         24.1456   16.9580   67.9079 H           1 MOL       0.0740
     23 H3         21.7666   18.7747   68.2997 H           1 MOL       0.0632
     24 H4         24.6116   19.8552   68.1151 H           1 MOL       0.0697
     25 H5         23.2749   21.0976   69.8420 H           1 MOL       0.0652
     26 H6         24.0059   22.4507   67.2100 H           1 MOL       0.0674
     27 H7         23.4171   24.1233   69.6818 H           1 MOL       0.0840
     28 H8         22.2053   23.8990   68.4055 H           1 MOL       0.0840
     29 H9         24.7758   18.1558   72.6074 H           1 MOL       0.0467
     30 H10        23.8370   16.7802   71.9837 H           1 MOL       0.0467
     31 H11        23.0056   18.2844   72.4777 H           1 MOL       0.0467
     32 H12        22.1631   17.8989   70.2514 H           1 MOL       0.1858
     33 H13        22.4234   15.8007   68.0917 H           1 MOL       0.2127
     34 H14        21.4128   22.0273   69.3403 H           1 MOL       0.2100
     35 H15        25.0868   22.5657   69.8205 H           1 MOL       0.2101
     36 H16        23.5713   25.8565   68.1164 H           1 MOL       0.1995
     37 H17        23.6317   24.8001   66.8260 H           1 MOL       0.1995
     38 H18        24.9137   24.8862   67.8796 H           1 MOL       0.1995
@<TRIPOS>BOND
     1     1    14  ar
     2     1    13  ar
     3     1     2   1
     4     2    16   1
     5     2     3   2
     6     3     4   1
     7     4    15   1
     8     4     5   1
     9     5    12   1
    10     5     6   1
    11     6    16   1
    12     6     7   1
    13     7    17   1
    14     7     8   1
    15     8    18   1
    16     8     9   1
    17     9    19   1
    18    12    10  am
    19    10    20   2
    20    10    11   1
    21     3    21   1
    22     4    22   1
    23     5    23   1
    24     6    24   1
    25     7    25   1
    26     8    26   1
    27     9    27   1
    28     9    28   1
    29    11    29   1
    30    11    30   1
    31    11    31   1
    32    12    32   1
    33    15    33   1
    34    17    34   1
    35    18    35   1
    36    19    36   1
    37    19    37   1
    38    19    38   1
@<TRIPOS>SUBSTRUCTURE
     1  MOL      1

