@<TRIPOS>MOLECULE
1f8d_ligand_070
    38    38
SMALL
GAST_HUCK
****
This file was generated by PARSER (from files_GN.cpp)

@<TRIPOS>ATOM
      1 C1         29.5795   20.8447   62.4408 C.2         1 MOL       0.0809
      2 C2         29.1854   19.5860   62.0371 C.2         1 MOL       0.1088
      3 C3         29.9615   18.4963   62.2262 C.2         1 MOL      -0.0276
      4 C4         29.5635   17.1569   61.8291 C.3         1 MOL       0.1003
      5 C5         28.2137   17.0651   61.0235 C.3         1 MOL       0.1064
      6 C6         27.6380   18.4536   60.5737 C.3         1 MOL       0.1322
      7 C7         28.0047   18.9862   59.1477 C.3         1 MOL       0.1183
      8 C8         27.7354   18.0495   57.9156 C.3         1 MOL       0.1232
      9 C9         26.7138   16.8848   58.0719 C.3         1 MOL      -0.0062
     10 C10        26.4118   16.6623   62.7020 C.2         1 MOL       0.1734
     11 C11        25.3997   15.7491   63.1596 C.3         1 MOL       0.0257
     12 N5         27.2291   16.2807   61.7257 N.am        1 MOL      -0.2770
     13 O1A        28.6832   21.8624   62.4600 O.co2       1 MOL      -0.5623
     14 O1B        30.8413   21.1305   62.8540 O.co2       1 MOL      -0.5623
     15 O4         30.6367   16.5993   61.0663 O.3         1 MOL      -0.3807
     16 O6         27.9215   19.4587   61.5682 O.3         1 MOL      -0.3189
     17 O7         27.3193   20.2249   58.9465 O.3         1 MOL      -0.3860
     18 O8         27.3678   18.8337   56.7668 O.3         1 MOL      -0.3838
     19 N9         25.3224   17.3012   57.8874 N.4         1 MOL       0.2204
     20 O10        26.4216   17.8159   63.1441 O.2         1 MOL      -0.3974
     21 H1         30.8554   18.5871   62.6675 H           1 MOL       0.0480
     22 H2         29.4901   16.5561   62.7425 H           1 MOL       0.0740
     23 H3         28.4026   16.4794   60.1202 H           1 MOL       0.0632
     24 H4         26.5461   18.3906   60.5612 H           1 MOL       0.0697
     25 H5         29.0686   19.2304   59.1539 H           1 MOL       0.0652
     26 H6         28.6895   17.5871   57.6613 H           1 MOL       0.0674
     27 H7         26.7903   16.4135   59.0496 H           1 MOL       0.0840
     28 H8         26.9192   16.1273   57.2995 H           1 MOL       0.0840
     29 H9         24.7144   16.2261   63.8671 H           1 MOL       0.0467
     30 H10        25.8764   14.8982   63.6520 H           1 MOL       0.0467
     31 H11        24.8114   15.3828   62.3106 H           1 MOL       0.0467
     32 H12        27.0973   15.3697   61.4061 H           1 MOL       0.1858
     33 H13        31.2774   16.2453   61.7248 H           1 MOL       0.2127
     34 H14        27.6630   20.8396   59.6215 H           1 MOL       0.2100
     35 H15        27.0752   18.1819   56.0943 H           1 MOL       0.2101
     36 H16        24.7346   16.5083   58.1431 H           1 MOL       0.1995
     37 H17        25.1568   17.5458   56.8933 H           1 MOL       0.1995
     38 H18        25.1062   18.0890   58.5072 H           1 MOL       0.1995
@<TRIPOS>BOND
     1     1    14  ar
     2     1    13  ar
     3     1     2   1
     4     2    16   1
     5     2     3   2
     6     3     4   1
     7     4    15   1
     8     4     5   1
     9     5    12   1
    10     5     6   1
    11     6    16   1
    12     6     7   1
    13     7    17   1
    14     7     8   1
    15     8    18   1
    16     8     9   1
    17     9    19   1
    18    12    10  am
    19    10    20   2
    20    10    11   1
    21     3    21   1
    22     4    22   1
    23     5    23   1
    24     6    24   1
    25     7    25   1
    26     8    26   1
    27     9    27   1
    28     9    28   1
    29    11    29   1
    30    11    30   1
    31    11    31   1
    32    12    32   1
    33    15    33   1
    34    17    34   1
    35    18    35   1
    36    19    36   1
    37    19    37   1
    38    19    38   1
@<TRIPOS>SUBSTRUCTURE
     1  MOL      1

