@<TRIPOS>MOLECULE
1f8d_ligand_069
    38    38
SMALL
GAST_HUCK
****
This file was generated by PARSER (from files_GN.cpp)

@<TRIPOS>ATOM
      1 C1         24.6992   17.3570   68.1848 C.2         1 MOL       0.0809
      2 C2         24.7203   17.9840   66.9444 C.2         1 MOL       0.1088
      3 C3         23.8650   18.9875   66.6497 C.2         1 MOL      -0.0276
      4 C4         23.9271   19.7255   65.3981 C.3         1 MOL       0.1003
      5 C5         25.2247   19.4478   64.5740 C.3         1 MOL       0.1064
      6 C6         25.5805   17.9271   64.6622 C.3         1 MOL       0.1322
      7 C7         24.6734   16.8867   63.9121 C.3         1 MOL       0.1183
      8 C8         24.0107   17.3890   62.5779 C.3         1 MOL       0.1232
      9 C9         23.9765   16.4233   61.3545 C.3         1 MOL      -0.0062
     10 C10        27.5276   20.3634   64.6238 C.2         1 MOL       0.1734
     11 C11        28.4916   21.1657   65.3414 C.3         1 MOL       0.0257
     12 N5         26.3060   20.2264   65.1286 N.am        1 MOL      -0.2770
     13 O1A        25.7960   16.7049   68.6500 O.co2       1 MOL      -0.5623
     14 O1B        23.5839   17.3097   68.9642 O.co2       1 MOL      -0.5623
     15 O4         22.7495   19.4068   64.6579 O.3         1 MOL      -0.3807
     16 O6         25.7005   17.6005   66.0776 O.3         1 MOL      -0.3189
     17 O7         25.4932   15.7379   63.6888 O.3         1 MOL      -0.3860
     18 O8         22.6593   17.7767   62.8546 O.3         1 MOL      -0.3838
     19 N9         25.1143   16.6311   60.4488 N.4         1 MOL       0.2204
     20 O10        27.8426   19.8676   63.5464 O.2         1 MOL      -0.3974
     21 H1         23.1505   19.2479   67.2916 H           1 MOL       0.0480
     22 H2         23.8686   20.7925   65.6247 H           1 MOL       0.0740
     23 H3         25.0680   19.7740   63.5409 H           1 MOL       0.0632
     24 H4         26.5825   17.8005   64.2352 H           1 MOL       0.0697
     25 H5         23.8842   16.5660   64.5997 H           1 MOL       0.0652
     26 H6         24.5273   18.2899   62.2462 H           1 MOL       0.0674
     27 H7         23.0804   16.6200   60.7597 H           1 MOL       0.0840
     28 H8         23.9355   15.3820   61.6790 H           1 MOL       0.0840
     29 H9         29.4373   21.2435   64.7970 H           1 MOL       0.0467
     30 H10        28.6879   20.7181   66.3174 H           1 MOL       0.0467
     31 H11        28.1003   22.1732   65.4882 H           1 MOL       0.0467
     32 H12        26.1283   20.6972   65.9606 H           1 MOL       0.1858
     33 H13        22.9021   19.7522   63.7455 H           1 MOL       0.2127
     34 H14        24.8743   15.0204   63.4428 H           1 MOL       0.2100
     35 H15        22.1651   16.9334   62.9805 H           1 MOL       0.2101
     36 H16        25.0215   16.0254   59.6274 H           1 MOL       0.1995
     37 H17        25.9939   16.4294   60.9293 H           1 MOL       0.1995
     38 H18        25.1012   17.6049   60.1328 H           1 MOL       0.1995
@<TRIPOS>BOND
     1     1    14  ar
     2     1    13  ar
     3     1     2   1
     4     2    16   1
     5     2     3   2
     6     3     4   1
     7     4    15   1
     8     4     5   1
     9     5    12   1
    10     5     6   1
    11     6    16   1
    12     6     7   1
    13     7    17   1
    14     7     8   1
    15     8    18   1
    16     8     9   1
    17     9    19   1
    18    12    10  am
    19    10    20   2
    20    10    11   1
    21     3    21   1
    22     4    22   1
    23     5    23   1
    24     6    24   1
    25     7    25   1
    26     8    26   1
    27     9    27   1
    28     9    28   1
    29    11    29   1
    30    11    30   1
    31    11    31   1
    32    12    32   1
    33    15    33   1
    34    17    34   1
    35    18    35   1
    36    19    36   1
    37    19    37   1
    38    19    38   1
@<TRIPOS>SUBSTRUCTURE
     1  MOL      1

