@<TRIPOS>MOLECULE
1f8d_ligand_024
    38    38
SMALL
GAST_HUCK
****
This file was generated by PARSER (from files_GN.cpp)

@<TRIPOS>ATOM
      1 C1         24.1689   19.4781   64.5873 C.2         1 MOL       0.0809
      2 C2         25.2944   18.7530   64.2542 C.2         1 MOL       0.1088
      3 C3         25.8538   18.7657   63.0255 C.2         1 MOL      -0.0276
      4 C4         27.0971   18.0504   62.8298 C.3         1 MOL       0.1003
      5 C5         28.0831   18.3552   64.0060 C.3         1 MOL       0.1064
      6 C6         27.3204   18.3638   65.3979 C.3         1 MOL       0.1322
      7 C7         27.9710   17.4197   66.4694 C.3         1 MOL       0.1183
      8 C8         27.2465   17.3099   67.8573 C.3         1 MOL       0.1232
      9 C9         27.9369   18.0844   69.0127 C.3         1 MOL      -0.0062
     10 C10        29.8241   19.8654   63.1178 C.2         1 MOL       0.1734
     11 C11        30.1736   21.2356   62.8286 C.3         1 MOL       0.0257
     12 N5         28.6778   19.6344   63.7427 N.am        1 MOL      -0.2770
     13 O1A        23.1349   18.9084   65.2637 O.co2       1 MOL      -0.5623
     14 O1B        24.0717   20.8046   64.3027 O.co2       1 MOL      -0.5623
     15 O4         26.8295   16.6482   62.7847 O.3         1 MOL      -0.3807
     16 O6         25.9073   18.0378   65.2298 O.3         1 MOL      -0.3189
     17 O7         28.1310   16.1096   65.9127 O.3         1 MOL      -0.3860
     18 O8         25.8775   17.7198   67.8108 O.3         1 MOL      -0.3838
     19 N9         27.2549   17.8569   70.2951 N.4         1 MOL       0.2204
     20 O10        30.5656   18.9634   62.7439 O.2         1 MOL      -0.3974
     21 H1         25.4619   19.3183   62.2870 H           1 MOL       0.0480
     22 H2         27.5390   18.3223   61.8722 H           1 MOL       0.0740
     23 H3         28.8524   17.5795   64.0026 H           1 MOL       0.0632
     24 H4         27.3584   19.3750   65.8271 H           1 MOL       0.0697
     25 H5         28.9872   17.7793   66.6441 H           1 MOL       0.0652
     26 H6         27.2418   16.2589   68.1617 H           1 MOL       0.0674
     27 H7         27.9413   19.1572   68.8010 H           1 MOL       0.0840
     28 H8         28.9730   17.7472   69.1225 H           1 MOL       0.0840
     29 H9         31.0937   21.3121   62.2429 H           1 MOL       0.0467
     30 H10        30.3120   21.7751   63.7690 H           1 MOL       0.0467
     31 H11        29.3681   21.7155   62.2652 H           1 MOL       0.0467
     32 H12        28.1352   20.4148   63.9329 H           1 MOL       0.1858
     33 H13        26.3927   16.4876   61.9211 H           1 MOL       0.2127
     34 H14        27.2286   15.7481   65.8183 H           1 MOL       0.2100
     35 H15        25.4268   17.0466   67.2664 H           1 MOL       0.2101
     36 H16        27.7718   18.3123   71.0525 H           1 MOL       0.1995
     37 H17        27.1983   16.8516   70.4843 H           1 MOL       0.1995
     38 H18        26.3077   18.2436   70.2536 H           1 MOL       0.1995
@<TRIPOS>BOND
     1     1    14  ar
     2     1    13  ar
     3     1     2   1
     4     2    16   1
     5     2     3   2
     6     3     4   1
     7     4    15   1
     8     4     5   1
     9     5    12   1
    10     5     6   1
    11     6    16   1
    12     6     7   1
    13     7    17   1
    14     7     8   1
    15     8    18   1
    16     8     9   1
    17     9    19   1
    18    12    10  am
    19    10    20   2
    20    10    11   1
    21     3    21   1
    22     4    22   1
    23     5    23   1
    24     6    24   1
    25     7    25   1
    26     8    26   1
    27     9    27   1
    28     9    28   1
    29    11    29   1
    30    11    30   1
    31    11    31   1
    32    12    32   1
    33    15    33   1
    34    17    34   1
    35    18    35   1
    36    19    36   1
    37    19    37   1
    38    19    38   1
@<TRIPOS>SUBSTRUCTURE
     1  MOL      1

