@<TRIPOS>MOLECULE
1f8d_ligand_042
    38    38
SMALL
GAST_HUCK
****
This file was generated by PARSER (from files_GN.cpp)

@<TRIPOS>ATOM
      1 C1         25.6560   21.9663   66.3285 C.2         1 MOL       0.0809
      2 C2         24.9561   22.3014   67.4513 C.2         1 MOL       0.1088
      3 C3         24.4307   23.5269   67.6427 C.2         1 MOL      -0.0276
      4 C4         23.4821   23.7866   68.7117 C.3         1 MOL       0.1003
      5 C5         23.0527   22.5310   69.5526 C.3         1 MOL       0.1064
      6 C6         23.3281   21.2192   68.7401 C.3         1 MOL       0.1322
      7 C7         23.0671   19.8663   69.4691 C.3         1 MOL       0.1183
      8 C8         23.8691   18.6682   68.8667 C.3         1 MOL       0.1232
      9 C9         23.3929   17.2805   69.3620 C.3         1 MOL      -0.0062
     10 C10        21.1320   22.7331   71.1108 C.2         1 MOL       0.1734
     11 C11        19.6915   22.8362   71.2332 C.3         1 MOL       0.0257
     12 N5         21.6553   22.6126   69.8912 N.am        1 MOL      -0.2770
     13 O1A        24.9328   21.4853   65.2875 O.co2       1 MOL      -0.5623
     14 O1B        26.9178   21.4850   66.4578 O.co2       1 MOL      -0.5623
     15 O4         24.0631   24.7820   69.5543 O.3         1 MOL      -0.3807
     16 O6         24.7148   21.2988   68.3250 O.3         1 MOL      -0.3189
     17 O7         23.3709   19.9790   70.8610 O.3         1 MOL      -0.3860
     18 O8         23.8673   18.6809   67.4331 O.3         1 MOL      -0.3838
     19 N9         22.3855   16.6580   68.4779 N.4         1 MOL       0.2204
     20 O10        21.8282   22.7759   72.1234 O.2         1 MOL      -0.3974
     21 H1         24.6217   24.2545   66.9928 H           1 MOL       0.0480
     22 H2         22.6003   24.2270   68.2462 H           1 MOL       0.0740
     23 H3         23.6835   22.5018   70.4541 H           1 MOL       0.0632
     24 H4         22.6748   21.2155   67.8486 H           1 MOL       0.0697
     25 H5         22.0010   19.6536   69.3857 H           1 MOL       0.0652
     26 H6         24.9152   18.7812   69.1716 H           1 MOL       0.0674
     27 H7         22.9621   17.3556   70.3714 H           1 MOL       0.0840
     28 H8         24.2487   16.5924   69.4077 H           1 MOL       0.0840
     29 H9         19.3875   22.9133   72.2840 H           1 MOL       0.0467
     30 H10        19.2160   21.9522   70.7946 H           1 MOL       0.0467
     31 H11        19.3463   23.7309   70.7056 H           1 MOL       0.0467
     32 H12        21.0310   22.6119   69.1468 H           1 MOL       0.1858
     33 H13        23.3442   25.0731   70.1558 H           1 MOL       0.2127
     34 H14        24.3217   20.2208   70.8998 H           1 MOL       0.2100
     35 H15        24.5181   19.3677   67.1645 H           1 MOL       0.2101
     36 H16        22.0317   15.8097   68.9244 H           1 MOL       0.1995
     37 H17        22.8338   16.3990   67.5891 H           1 MOL       0.1995
     38 H18        21.6076   17.3055   68.3176 H           1 MOL       0.1995
@<TRIPOS>BOND
     1     1    14  ar
     2     1    13  ar
     3     1     2   1
     4     2    16   1
     5     2     3   2
     6     3     4   1
     7     4    15   1
     8     4     5   1
     9     5    12   1
    10     5     6   1
    11     6    16   1
    12     6     7   1
    13     7    17   1
    14     7     8   1
    15     8    18   1
    16     8     9   1
    17     9    19   1
    18    12    10  am
    19    10    20   2
    20    10    11   1
    21     3    21   1
    22     4    22   1
    23     5    23   1
    24     6    24   1
    25     7    25   1
    26     8    26   1
    27     9    27   1
    28     9    28   1
    29    11    29   1
    30    11    30   1
    31    11    31   1
    32    12    32   1
    33    15    33   1
    34    17    34   1
    35    18    35   1
    36    19    36   1
    37    19    37   1
    38    19    38   1
@<TRIPOS>SUBSTRUCTURE
     1  MOL      1

