@<TRIPOS>MOLECULE
1f8d_ligand_028
    38    38
SMALL
GAST_HUCK
****
This file was generated by PARSER (from files_GN.cpp)

@<TRIPOS>ATOM
      1 C1         20.5011   19.6876   68.5610 C.2         1 MOL       0.0809
      2 C2         21.8230   19.3502   68.2863 C.2         1 MOL       0.1088
      3 C3         22.7003   19.0072   69.2555 C.2         1 MOL      -0.0276
      4 C4         24.0573   18.5814   68.9522 C.3         1 MOL       0.1003
      5 C5         24.5178   18.9169   67.4997 C.3         1 MOL       0.1064
      6 C6         23.3335   18.7007   66.5062 C.3         1 MOL       0.1322
      7 C7         23.6411   19.1799   65.0466 C.3         1 MOL       0.1183
      8 C8         24.2446   18.1002   64.0721 C.3         1 MOL       0.1232
      9 C9         23.2267   17.3303   63.1737 C.3         1 MOL      -0.0062
     10 C10        26.9200   18.4897   67.0667 C.2         1 MOL       0.1734
     11 C11        27.9293   17.4824   66.8214 C.3         1 MOL       0.0257
     12 N5         25.6584   18.1035   67.1696 N.am        1 MOL      -0.2770
     13 O1A        19.6043   19.8333   67.5472 O.co2       1 MOL      -0.5623
     14 O1B        20.0383   19.8790   69.8228 O.co2       1 MOL      -0.5623
     15 O4         24.9607   19.1862   69.8780 O.3         1 MOL      -0.3807
     16 O6         22.2096   19.4705   66.9972 O.3         1 MOL      -0.3189
     17 O7         22.4673   19.7645   64.4858 O.3         1 MOL      -0.3860
     18 O8         25.2531   18.7379   63.2783 O.3         1 MOL      -0.3838
     19 N9         23.6944   17.1433   61.7835 N.4         1 MOL       0.2204
     20 O10        27.2620   19.6522   67.2433 O.2         1 MOL      -0.3974
     21 H1         22.3903   18.9371   70.2015 H           1 MOL       0.0480
     22 H2         24.0861   17.4982   69.1059 H           1 MOL       0.0740
     23 H3         24.7737   19.9804   67.4819 H           1 MOL       0.0632
     24 H4         23.0441   17.6437   66.4933 H           1 MOL       0.0697
     25 H5         24.3562   20.0105   65.1034 H           1 MOL       0.0652
     26 H6         24.7895   17.3556   64.6544 H           1 MOL       0.0674
     27 H7         22.2752   17.8491   63.0921 H           1 MOL       0.0840
     28 H8         23.0384   16.3428   63.5998 H           1 MOL       0.0840
     29 H9         28.9309   17.9191   66.8159 H           1 MOL       0.0467
     30 H10        27.7419   17.0096   65.8571 H           1 MOL       0.0467
     31 H11        27.8898   16.7249   67.6079 H           1 MOL       0.0467
     32 H12        25.4863   17.1524   67.0650 H           1 MOL       0.1858
     33 H13        24.7009   18.8442   70.7590 H           1 MOL       0.2127
     34 H14        22.6803   19.9173   63.5520 H           1 MOL       0.2100
     35 H15        24.7668   19.3386   62.6791 H           1 MOL       0.2101
     36 H16        22.9964   16.6046   61.2590 H           1 MOL       0.1995
     37 H17        24.5910   16.6367   61.7766 H           1 MOL       0.1995
     38 H18        23.8188   18.0567   61.3109 H           1 MOL       0.1995
@<TRIPOS>BOND
     1     1    14  ar
     2     1    13  ar
     3     1     2   1
     4     2    16   1
     5     2     3   2
     6     3     4   1
     7     4    15   1
     8     4     5   1
     9     5    12   1
    10     5     6   1
    11     6    16   1
    12     6     7   1
    13     7    17   1
    14     7     8   1
    15     8    18   1
    16     8     9   1
    17     9    19   1
    18    12    10  am
    19    10    20   2
    20    10    11   1
    21     3    21   1
    22     4    22   1
    23     5    23   1
    24     6    24   1
    25     7    25   1
    26     8    26   1
    27     9    27   1
    28     9    28   1
    29    11    29   1
    30    11    30   1
    31    11    31   1
    32    12    32   1
    33    15    33   1
    34    17    34   1
    35    18    35   1
    36    19    36   1
    37    19    37   1
    38    19    38   1
@<TRIPOS>SUBSTRUCTURE
     1  MOL      1

