@<TRIPOS>MOLECULE
1f8d_ligand_055
    38    38
SMALL
GAST_HUCK
****
This file was generated by PARSER (from files_GN.cpp)

@<TRIPOS>ATOM
      1 C1         21.5096   17.0899   68.5562 C.2         1 MOL       0.0809
      2 C2         22.3665   17.7319   67.6752 C.2         1 MOL       0.1088
      3 C3         23.1277   18.7836   68.0570 C.2         1 MOL      -0.0276
      4 C4         24.0772   19.4375   67.1651 C.3         1 MOL       0.1003
      5 C5         24.0329   18.9187   65.6892 C.3         1 MOL       0.1064
      6 C6         23.6424   17.4194   65.6762 C.3         1 MOL       0.1322
      7 C7         23.5760   16.7223   64.2728 C.3         1 MOL       0.1183
      8 C8         23.2232   17.6152   63.0406 C.3         1 MOL       0.1232
      9 C9         23.0858   16.8536   61.6869 C.3         1 MOL      -0.0062
     10 C10        25.5657   20.0680   64.1680 C.2         1 MOL       0.1734
     11 C11        26.7652   19.9667   63.3765 C.3         1 MOL       0.0257
     12 N5         25.2751   19.0935   65.0098 N.am        1 MOL      -0.2770
     13 O1A        20.4158   16.4253   68.1090 O.co2       1 MOL      -0.5623
     14 O1B        21.7994   16.9474   69.8730 O.co2       1 MOL      -0.5623
     15 O4         23.8394   20.8504   67.1826 O.3         1 MOL      -0.3807
     16 O6         22.3863   17.2940   66.3897 O.3         1 MOL      -0.3189
     17 O7         24.8308   16.0687   64.0350 O.3         1 MOL      -0.3860
     18 O8         22.0143   18.3330   63.3097 O.3         1 MOL      -0.3838
     19 N9         24.3070   16.8686   60.8733 N.4         1 MOL       0.2204
     20 O10        24.7772   20.9906   63.9823 O.2         1 MOL      -0.3974
     21 H1         23.1027   19.0963   69.0084 H           1 MOL       0.0480
     22 H2         25.0792   19.2679   67.5763 H           1 MOL       0.0740
     23 H3         23.2511   19.4638   65.1668 H           1 MOL       0.0632
     24 H4         24.3936   16.8886   66.2663 H           1 MOL       0.0697
     25 H5         22.8234   15.9209   64.3467 H           1 MOL       0.0652
     26 H6         24.0043   18.3643   62.9135 H           1 MOL       0.0674
     27 H7         22.3044   17.3289   61.0861 H           1 MOL       0.0840
     28 H8         22.7975   15.8124   61.8673 H           1 MOL       0.0840
     29 H9         26.8860   20.8138   62.6975 H           1 MOL       0.0467
     30 H10        26.7367   19.0516   62.7715 H           1 MOL       0.0467
     31 H11        27.6400   19.9249   64.0322 H           1 MOL       0.0467
     32 H12        25.9329   18.3859   65.0856 H           1 MOL       0.1858
     33 H13        24.2014   21.1670   68.0418 H           1 MOL       0.2127
     34 H14        24.6318   15.3505   63.3892 H           1 MOL       0.2100
     35 H15        21.2930   17.6766   63.2240 H           1 MOL       0.2101
     36 H16        24.1354   16.3782   59.9939 H           1 MOL       0.1995
     37 H17        25.0708   16.4120   61.3690 H           1 MOL       0.1995
     38 H18        24.5622   17.8371   60.6677 H           1 MOL       0.1995
@<TRIPOS>BOND
     1     1    14  ar
     2     1    13  ar
     3     1     2   1
     4     2    16   1
     5     2     3   2
     6     3     4   1
     7     4    15   1
     8     4     5   1
     9     5    12   1
    10     5     6   1
    11     6    16   1
    12     6     7   1
    13     7    17   1
    14     7     8   1
    15     8    18   1
    16     8     9   1
    17     9    19   1
    18    12    10  am
    19    10    20   2
    20    10    11   1
    21     3    21   1
    22     4    22   1
    23     5    23   1
    24     6    24   1
    25     7    25   1
    26     8    26   1
    27     9    27   1
    28     9    28   1
    29    11    29   1
    30    11    30   1
    31    11    31   1
    32    12    32   1
    33    15    33   1
    34    17    34   1
    35    18    35   1
    36    19    36   1
    37    19    37   1
    38    19    38   1
@<TRIPOS>SUBSTRUCTURE
     1  MOL      1

