@<TRIPOS>MOLECULE
1f8d_ligand_046
    38    38
SMALL
GAST_HUCK
****
This file was generated by PARSER (from files_GN.cpp)

@<TRIPOS>ATOM
      1 C1         27.3339   15.7863   64.4889 C.2         1 MOL       0.0809
      2 C2         26.7516   16.9259   63.9864 C.2         1 MOL       0.1088
      3 C3         26.1468   17.8467   64.7703 C.2         1 MOL      -0.0276
      4 C4         25.4510   18.9935   64.2073 C.3         1 MOL       0.1003
      5 C5         25.8280   19.2524   62.7083 C.3         1 MOL       0.1064
      6 C6         25.9260   17.8985   61.9382 C.3         1 MOL       0.1322
      7 C7         24.5788   17.1531   61.6445 C.3         1 MOL       0.1183
      8 C8         24.6667   16.0835   60.5070 C.3         1 MOL       0.1232
      9 C9         25.7854   15.0192   60.6740 C.3         1 MOL      -0.0062
     10 C10        28.0216   20.4082   63.2667 C.2         1 MOL       0.1734
     11 C11        29.1240   21.1437   62.6926 C.3         1 MOL       0.0257
     12 N5         27.0274   20.0294   62.4680 N.am        1 MOL      -0.2770
     13 O1A        28.1383   15.8002   65.5855 O.co2       1 MOL      -0.5623
     14 O1B        27.0885   14.5932   63.8840 O.co2       1 MOL      -0.5623
     15 O4         24.0521   18.7502   64.3654 O.3         1 MOL      -0.3807
     16 O6         26.8604   17.0610   62.6409 O.3         1 MOL      -0.3189
     17 O7         24.0193   16.5415   62.8095 O.3         1 MOL      -0.3860
     18 O8         23.4110   15.3978   60.4121 O.3         1 MOL      -0.3838
     19 N9         25.7487   14.0113   59.6058 N.4         1 MOL       0.2204
     20 O10        28.0669   20.1516   64.4598 O.2         1 MOL      -0.3974
     21 H1         26.0794   17.6956   65.7535 H           1 MOL       0.0480
     22 H2         25.6751   19.8810   64.7931 H           1 MOL       0.0740
     23 H3         25.0343   19.8591   62.2716 H           1 MOL       0.0632
     24 H4         26.3842   18.1137   60.9662 H           1 MOL       0.0697
     25 H5         23.8509   17.8993   61.3177 H           1 MOL       0.0652
     26 H6         24.8341   16.6024   59.5548 H           1 MOL       0.0674
     27 H7         25.6906   14.5007   61.6343 H           1 MOL       0.0840
     28 H8         26.7620   15.5039   60.6304 H           1 MOL       0.0840
     29 H9         29.8850   21.3924   63.4325 H           1 MOL       0.0467
     30 H10        28.7530   22.0738   62.2615 H           1 MOL       0.0467
     31 H11        29.5926   20.5470   61.9141 H           1 MOL       0.0467
     32 H12        27.1548   20.2773   61.5373 H           1 MOL       0.1858
     33 H13        23.6086   19.1162   63.5561 H           1 MOL       0.2127
     34 H14        24.6286   15.8131   63.0447 H           1 MOL       0.2100
     35 H15        22.8125   16.0130   59.9221 H           1 MOL       0.2101
     36 H16        26.6731   13.5824   59.5080 H           1 MOL       0.1995
     37 H17        25.4830   14.4657   58.7254 H           1 MOL       0.1995
     38 H18        25.0588   13.2848   59.8219 H           1 MOL       0.1995
@<TRIPOS>BOND
     1     1    14  ar
     2     1    13  ar
     3     1     2   1
     4     2    16   1
     5     2     3   2
     6     3     4   1
     7     4    15   1
     8     4     5   1
     9     5    12   1
    10     5     6   1
    11     6    16   1
    12     6     7   1
    13     7    17   1
    14     7     8   1
    15     8    18   1
    16     8     9   1
    17     9    19   1
    18    12    10  am
    19    10    20   2
    20    10    11   1
    21     3    21   1
    22     4    22   1
    23     5    23   1
    24     6    24   1
    25     7    25   1
    26     8    26   1
    27     9    27   1
    28     9    28   1
    29    11    29   1
    30    11    30   1
    31    11    31   1
    32    12    32   1
    33    15    33   1
    34    17    34   1
    35    18    35   1
    36    19    36   1
    37    19    37   1
    38    19    38   1
@<TRIPOS>SUBSTRUCTURE
     1  MOL      1

