@<TRIPOS>MOLECULE
1f8d_ligand_051
    38    38
SMALL
GAST_HUCK
****
This file was generated by PARSER (from files_GN.cpp)

@<TRIPOS>ATOM
      1 C1         29.6871   17.1398   64.9762 C.2         1 MOL       0.0809
      2 C2         28.6638   17.9412   64.5313 C.2         1 MOL       0.1088
      3 C3         28.8284   19.2426   64.2245 C.2         1 MOL      -0.0276
      4 C4         27.6762   20.0476   63.8547 C.3         1 MOL       0.1003
      5 C5         26.6704   19.2600   62.9484 C.3         1 MOL       0.1064
      6 C6         26.6326   17.7158   63.2681 C.3         1 MOL       0.1322
      7 C7         25.2047   17.1080   63.4860 C.3         1 MOL       0.1183
      8 C8         24.0597   17.5218   62.4928 C.3         1 MOL       0.1232
      9 C9         23.6987   16.5589   61.3228 C.3         1 MOL      -0.0062
     10 C10        27.8964   19.1620   60.7820 C.2         1 MOL       0.1734
     11 C11        27.8018   19.4405   59.3702 C.3         1 MOL       0.0257
     12 N5         26.8772   19.5135   61.5543 N.am        1 MOL      -0.2770
     13 O1A        30.9923   17.5214   64.9212 O.co2       1 MOL      -0.5623
     14 O1B        29.4321   15.9102   65.4852 O.co2       1 MOL      -0.5623
     15 O4         27.0373   20.4625   65.0672 O.3         1 MOL      -0.3807
     16 O6         27.4166   17.4080   64.4540 O.3         1 MOL      -0.3189
     17 O7         25.3242   15.6811   63.5524 O.3         1 MOL      -0.3860
     18 O8         22.8644   17.7978   63.2318 O.3         1 MOL      -0.3838
     19 N9         24.6993   16.6149   60.2425 N.4         1 MOL       0.2204
     20 O10        28.8716   18.5487   61.2197 O.2         1 MOL      -0.3974
     21 H1         29.7305   19.6719   64.2558 H           1 MOL       0.0480
     22 H2         28.0204   20.9612   63.3505 H           1 MOL       0.0740
     23 H3         25.6868   19.6849   63.1669 H           1 MOL       0.0632
     24 H4         27.0802   17.1584   62.4349 H           1 MOL       0.0697
     25 H5         24.8898   17.4121   64.4874 H           1 MOL       0.0652
     26 H6         24.3297   18.4736   62.0348 H           1 MOL       0.0674
     27 H7         22.7442   16.8657   60.8774 H           1 MOL       0.0840
     28 H8         23.5827   15.5246   61.6612 H           1 MOL       0.0840
     29 H9         28.6606   19.0460   58.8232 H           1 MOL       0.0467
     30 H10        27.7480   20.5225   59.2081 H           1 MOL       0.0467
     31 H11        26.8950   18.9726   58.9711 H           1 MOL       0.0467
     32 H12        26.1564   19.9910   61.1096 H           1 MOL       0.1858
     33 H13        27.6290   21.1274   65.4766 H           1 MOL       0.2127
     34 H14        25.6674   15.3988   62.6745 H           1 MOL       0.2100
     35 H15        22.2429   17.0481   63.0978 H           1 MOL       0.2101
     36 H16        24.3853   16.0424   59.4509 H           1 MOL       0.1995
     37 H17        25.6014   16.2689   60.5847 H           1 MOL       0.1995
     38 H18        24.7961   17.5882   59.9323 H           1 MOL       0.1995
@<TRIPOS>BOND
     1     1    14  ar
     2     1    13  ar
     3     1     2   1
     4     2    16   1
     5     2     3   2
     6     3     4   1
     7     4    15   1
     8     4     5   1
     9     5    12   1
    10     5     6   1
    11     6    16   1
    12     6     7   1
    13     7    17   1
    14     7     8   1
    15     8    18   1
    16     8     9   1
    17     9    19   1
    18    12    10  am
    19    10    20   2
    20    10    11   1
    21     3    21   1
    22     4    22   1
    23     5    23   1
    24     6    24   1
    25     7    25   1
    26     8    26   1
    27     9    27   1
    28     9    28   1
    29    11    29   1
    30    11    30   1
    31    11    31   1
    32    12    32   1
    33    15    33   1
    34    17    34   1
    35    18    35   1
    36    19    36   1
    37    19    37   1
    38    19    38   1
@<TRIPOS>SUBSTRUCTURE
     1  MOL      1

