@<TRIPOS>MOLECULE
1f8d_ligand_072
    38    38
SMALL
GAST_HUCK
****
This file was generated by PARSER (from files_GN.cpp)

@<TRIPOS>ATOM
      1 C1         29.7955   16.8325   65.8584 C.2         1 MOL       0.0809
      2 C2         29.5970   17.0915   64.5121 C.2         1 MOL       0.1088
      3 C3         28.8057   16.3322   63.7251 C.2         1 MOL      -0.0276
      4 C4         28.5792   16.6216   62.3151 C.3         1 MOL       0.1003
      5 C5         29.3275   17.8930   61.7510 C.3         1 MOL       0.1064
      6 C6         30.5216   18.3423   62.6613 C.3         1 MOL       0.1322
      7 C7         31.9251   17.7039   62.3329 C.3         1 MOL       0.1183
      8 C8         32.8823   17.3849   63.5490 C.3         1 MOL       0.1232
      9 C9         34.3986   17.6712   63.3304 C.3         1 MOL      -0.0062
     10 C10        28.0139   19.6023   60.5114 C.2         1 MOL       0.1734
     11 C11        27.0529   20.6732   60.6214 C.3         1 MOL       0.0257
     12 N5         28.3723   18.9716   61.6265 N.am        1 MOL      -0.2770
     13 O1A        29.3865   15.6854   66.4579 O.co2       1 MOL      -0.5623
     14 O1B        30.3893   17.7472   66.6602 O.co2       1 MOL      -0.5623
     15 O4         28.9182   15.4493   61.5728 O.3         1 MOL      -0.3807
     16 O6         30.1214   18.2474   64.0495 O.3         1 MOL      -0.3189
     17 O7         31.7649   16.4831   61.5892 O.3         1 MOL      -0.3860
     18 O8         32.4924   18.0395   64.7606 O.3         1 MOL      -0.3838
     19 N9         34.9194   17.5124   61.9570 N.4         1 MOL       0.2204
     20 O10        28.4756   19.3083   59.4137 O.2         1 MOL      -0.3974
     21 H1         28.3376   15.5448   64.1143 H           1 MOL       0.0480
     22 H2         27.5020   16.7322   62.1923 H           1 MOL       0.0740
     23 H3         29.7142   17.6402   60.7591 H           1 MOL       0.0632
     24 H4         30.6649   19.4090   62.5046 H           1 MOL       0.0697
     25 H5         32.4376   18.4189   61.6621 H           1 MOL       0.0652
     26 H6         32.7825   16.3128   63.7575 H           1 MOL       0.0674
     27 H7         34.9816   17.0079   63.9771 H           1 MOL       0.0840
     28 H8         34.6144   18.6956   63.6242 H           1 MOL       0.0840
     29 H9         26.8545   21.1362   59.6522 H           1 MOL       0.0467
     30 H10        27.4483   21.4355   61.2931 H           1 MOL       0.0467
     31 H11        26.1149   20.2898   61.0264 H           1 MOL       0.0467
     32 H12        27.9587   19.2779   62.4561 H           1 MOL       0.1858
     33 H13        29.9024   15.3656   61.6436 H           1 MOL       0.2127
     34 H14        32.6165   16.3881   61.0921 H           1 MOL       0.2100
     35 H15        32.6002   18.9991   64.5988 H           1 MOL       0.2101
     36 H16        35.9386   17.5866   61.9768 H           1 MOL       0.1995
     37 H17        34.5382   18.2626   61.3638 H           1 MOL       0.1995
     38 H18        34.6519   16.5943   61.5684 H           1 MOL       0.1995
@<TRIPOS>BOND
     1     1    14  ar
     2     1    13  ar
     3     1     2   1
     4     2    16   1
     5     2     3   2
     6     3     4   1
     7     4    15   1
     8     4     5   1
     9     5    12   1
    10     5     6   1
    11     6    16   1
    12     6     7   1
    13     7    17   1
    14     7     8   1
    15     8    18   1
    16     8     9   1
    17     9    19   1
    18    12    10  am
    19    10    20   2
    20    10    11   1
    21     3    21   1
    22     4    22   1
    23     5    23   1
    24     6    24   1
    25     7    25   1
    26     8    26   1
    27     9    27   1
    28     9    28   1
    29    11    29   1
    30    11    30   1
    31    11    31   1
    32    12    32   1
    33    15    33   1
    34    17    34   1
    35    18    35   1
    36    19    36   1
    37    19    37   1
    38    19    38   1
@<TRIPOS>SUBSTRUCTURE
     1  MOL      1

