@<TRIPOS>MOLECULE
1f8d_ligand_047
    38    38
SMALL
GAST_HUCK
****
This file was generated by PARSER (from files_GN.cpp)

@<TRIPOS>ATOM
      1 C1         30.1068   19.5844   62.6128 C.2         1 MOL       0.0809
      2 C2         28.8059   19.0981   62.6127 C.2         1 MOL       0.1088
      3 C3         27.7364   19.9156   62.5990 C.2         1 MOL      -0.0276
      4 C4         26.3737   19.4103   62.5061 C.3         1 MOL       0.1003
      5 C5         26.2389   17.8720   62.7697 C.3         1 MOL       0.1064
      6 C6         27.4776   17.1109   62.1746 C.3         1 MOL       0.1322
      7 C7         27.6022   15.5906   62.5361 C.3         1 MOL       0.1183
      8 C8         26.7338   14.5923   61.7004 C.3         1 MOL       0.1232
      9 C9         27.2404   14.3322   60.2521 C.3         1 MOL      -0.0062
     10 C10        24.4305   17.1495   61.2171 C.2         1 MOL       0.1734
     11 C11        23.0769   16.6511   61.1296 C.3         1 MOL       0.0257
     12 N5         24.9253   17.4171   62.4161 N.am        1 MOL      -0.2770
     13 O1A        30.4248   20.8483   62.9969 O.co2       1 MOL      -0.5623
     14 O1B        31.1327   18.7862   62.2310 O.co2       1 MOL      -0.5623
     15 O4         25.5633   20.1287   63.4418 O.3         1 MOL      -0.3807
     16 O6         28.6657   17.7546   62.7026 O.3         1 MOL      -0.3189
     17 O7         28.9630   15.1517   62.4273 O.3         1 MOL      -0.3860
     18 O8         26.7211   13.3488   62.4083 O.3         1 MOL      -0.3838
     19 N9         26.2118   13.8304   59.3282 N.4         1 MOL       0.2204
     20 O10        25.1234   17.2289   60.2067 O.2         1 MOL      -0.3974
     21 H1         27.8643   20.9021   62.5400 H           1 MOL       0.0480
     22 H2         26.0207   19.6548   61.4958 H           1 MOL       0.0740
     23 H3         26.3044   17.7416   63.8523 H           1 MOL       0.0632
     24 H4         27.4894   17.2190   61.0876 H           1 MOL       0.0697
     25 H5         27.3239   15.4880   63.5877 H           1 MOL       0.0652
     26 H6         25.7086   14.9526   61.6720 H           1 MOL       0.0674
     27 H7         28.0445   13.5956   60.2754 H           1 MOL       0.0840
     28 H8         27.6374   15.2477   59.8163 H           1 MOL       0.0840
     29 H9         22.8329   16.3140   60.1201 H           1 MOL       0.0467
     30 H10        22.3710   17.4347   61.4114 H           1 MOL       0.0467
     31 H11        22.9430   15.8080   61.8126 H           1 MOL       0.0467
     32 H12        24.3021   17.3164   63.1543 H           1 MOL       0.1858
     33 H13        24.6357   19.9322   63.1789 H           1 MOL       0.2127
     34 H14        29.4682   15.6117   63.1335 H           1 MOL       0.2100
     35 H15        26.0154   12.8050   61.9953 H           1 MOL       0.2101
     36 H16        26.6784   13.4712   58.4930 H           1 MOL       0.1995
     37 H17        25.5811   14.5857   59.0456 H           1 MOL       0.1995
     38 H18        25.6634   13.0741   59.7461 H           1 MOL       0.1995
@<TRIPOS>BOND
     1     1    14  ar
     2     1    13  ar
     3     1     2   1
     4     2    16   1
     5     2     3   2
     6     3     4   1
     7     4    15   1
     8     4     5   1
     9     5    12   1
    10     5     6   1
    11     6    16   1
    12     6     7   1
    13     7    17   1
    14     7     8   1
    15     8    18   1
    16     8     9   1
    17     9    19   1
    18    12    10  am
    19    10    20   2
    20    10    11   1
    21     3    21   1
    22     4    22   1
    23     5    23   1
    24     6    24   1
    25     7    25   1
    26     8    26   1
    27     9    27   1
    28     9    28   1
    29    11    29   1
    30    11    30   1
    31    11    31   1
    32    12    32   1
    33    15    33   1
    34    17    34   1
    35    18    35   1
    36    19    36   1
    37    19    37   1
    38    19    38   1
@<TRIPOS>SUBSTRUCTURE
     1  MOL      1

