@<TRIPOS>MOLECULE
1f8d_ligand_071
    38    38
SMALL
GAST_HUCK
****
This file was generated by PARSER (from files_GN.cpp)

@<TRIPOS>ATOM
      1 C1         28.9610   17.2381   63.4909 C.2         1 MOL       0.0809
      2 C2         27.5961   17.4463   63.5028 C.2         1 MOL       0.1088
      3 C3         26.7614   16.7453   64.3087 C.2         1 MOL      -0.0276
      4 C4         25.3113   16.9078   64.2619 C.3         1 MOL       0.1003
      5 C5         24.8468   18.1303   63.4248 C.3         1 MOL       0.1064
      6 C6         25.7720   18.2752   62.1637 C.3         1 MOL       0.1322
      7 C7         25.7438   17.1237   61.0823 C.3         1 MOL       0.1183
      8 C8         24.3704   16.5952   60.5330 C.3         1 MOL       0.1232
      9 C9         24.1392   15.0811   60.7702 C.3         1 MOL      -0.0062
     10 C10        24.0845   19.7968   65.0995 C.2         1 MOL       0.1734
     11 C11        24.5525   20.7388   66.0940 C.3         1 MOL       0.0257
     12 N5         24.9828   19.3113   64.2465 N.am        1 MOL      -0.2770
     13 O1A        29.8094   18.2057   63.0520 O.co2       1 MOL      -0.5623
     14 O1B        29.5250   16.0589   63.8543 O.co2       1 MOL      -0.5623
     15 O4         24.7447   15.7094   63.7228 O.3         1 MOL      -0.3807
     16 O6         27.1326   18.4152   62.6613 O.3         1 MOL      -0.3189
     17 O7         26.5287   17.5537   59.9628 O.3         1 MOL      -0.3860
     18 O8         23.2413   17.2819   61.0617 O.3         1 MOL      -0.3838
     19 N9         25.1539   14.2477   60.1020 N.4         1 MOL       0.2204
     20 O10        22.9196   19.4111   65.1354 O.2         1 MOL      -0.3974
     21 H1         27.1229   16.0449   64.9074 H           1 MOL       0.0480
     22 H2         24.9381   17.0165   65.2831 H           1 MOL       0.0740
     23 H3         23.8016   18.0172   63.1232 H           1 MOL       0.0632
     24 H4         25.5218   19.2090   61.6514 H           1 MOL       0.0697
     25 H5         26.2947   16.2800   61.4998 H           1 MOL       0.0652
     26 H6         24.3221   16.7591   59.4536 H           1 MOL       0.0674
     27 H7         23.1591   14.7985   60.3711 H           1 MOL       0.0840
     28 H8         24.1535   14.8627   61.8431 H           1 MOL       0.0840
     29 H9         23.7438   21.0660   66.7540 H           1 MOL       0.0467
     30 H10        24.9741   21.6166   65.6066 H           1 MOL       0.0467
     31 H11        25.3254   20.2772   66.7112 H           1 MOL       0.0467
     32 H12        25.8838   19.6560   64.3339 H           1 MOL       0.1858
     33 H13        23.7786   15.8197   63.8400 H           1 MOL       0.2127
     34 H14        27.4367   17.6915   60.3130 H           1 MOL       0.2100
     35 H15        23.3191   18.1878   60.6940 H           1 MOL       0.2101
     36 H16        24.9315   13.2585   60.2491 H           1 MOL       0.1995
     37 H17        26.0860   14.4541   60.4751 H           1 MOL       0.1995
     38 H18        25.1234   14.4620   59.1040 H           1 MOL       0.1995
@<TRIPOS>BOND
     1     1    14  ar
     2     1    13  ar
     3     1     2   1
     4     2    16   1
     5     2     3   2
     6     3     4   1
     7     4    15   1
     8     4     5   1
     9     5    12   1
    10     5     6   1
    11     6    16   1
    12     6     7   1
    13     7    17   1
    14     7     8   1
    15     8    18   1
    16     8     9   1
    17     9    19   1
    18    12    10  am
    19    10    20   2
    20    10    11   1
    21     3    21   1
    22     4    22   1
    23     5    23   1
    24     6    24   1
    25     7    25   1
    26     8    26   1
    27     9    27   1
    28     9    28   1
    29    11    29   1
    30    11    30   1
    31    11    31   1
    32    12    32   1
    33    15    33   1
    34    17    34   1
    35    18    35   1
    36    19    36   1
    37    19    37   1
    38    19    38   1
@<TRIPOS>SUBSTRUCTURE
     1  MOL      1

