@<TRIPOS>MOLECULE
1f8d_ligand_067
    38    38
SMALL
GAST_HUCK
****
This file was generated by PARSER (from files_GN.cpp)

@<TRIPOS>ATOM
      1 C1         26.1841   19.9600   66.6056 C.2         1 MOL       0.0809
      2 C2         26.3946   19.5627   65.2944 C.2         1 MOL       0.1088
      3 C3         27.5127   19.8622   64.6015 C.2         1 MOL      -0.0276
      4 C4         27.6445   19.3833   63.2295 C.3         1 MOL       0.1003
      5 C5         27.0786   17.9313   63.0248 C.3         1 MOL       0.1064
      6 C6         25.9492   17.6024   64.0775 C.3         1 MOL       0.1322
      7 C7         24.7437   16.7704   63.5345 C.3         1 MOL       0.1183
      8 C8         23.9038   17.4650   62.3943 C.3         1 MOL       0.1232
      9 C9         23.6234   16.5861   61.1400 C.3         1 MOL      -0.0062
     10 C10        29.1582   16.8091   62.2870 C.2         1 MOL       0.1734
     11 C11        30.1317   15.7876   62.5812 C.3         1 MOL       0.0257
     12 N5         28.1432   16.9658   63.1326 N.am        1 MOL      -0.2770
     13 O1A        27.1570   19.8857   67.5492 O.co2       1 MOL      -0.5623
     14 O1B        24.9496   20.3182   67.0139 O.co2       1 MOL      -0.5623
     15 O4         26.9457   20.3013   62.3787 O.3         1 MOL      -0.3807
     16 O6         25.4334   18.8099   64.7031 O.3         1 MOL      -0.3189
     17 O7         25.2190   15.4499   63.2162 O.3         1 MOL      -0.3860
     18 O8         22.6466   17.9312   62.9199 O.3         1 MOL      -0.3838
     19 N9         24.7220   16.6500   60.1634 N.4         1 MOL       0.2204
     20 O10        29.3003   17.5176   61.2921 O.2         1 MOL      -0.3974
     21 H1         28.2739   20.3579   65.0104 H           1 MOL       0.0480
     22 H2         28.6955   19.4298   62.9200 H           1 MOL       0.0740
     23 H3         26.6619   17.8957   62.0159 H           1 MOL       0.0632
     24 H4         26.3894   17.0004   64.8928 H           1 MOL       0.0697
     25 H5         24.0610   16.6040   64.3786 H           1 MOL       0.0652
     26 H6         24.3950   18.3720   62.0574 H           1 MOL       0.0674
     27 H7         22.7194   16.9412   60.6355 H           1 MOL       0.0840
     28 H8         23.4696   15.5393   61.4366 H           1 MOL       0.0840
     29 H9         30.9324   15.7875   61.8370 H           1 MOL       0.0467
     30 H10        29.6509   14.8052   62.5817 H           1 MOL       0.0467
     31 H11        30.5734   15.9625   63.5665 H           1 MOL       0.0467
     32 H12        28.1107   16.3652   63.9064 H           1 MOL       0.1858
     33 H13        25.9963   20.0639   62.4530 H           1 MOL       0.2127
     34 H14        25.9495   15.5758   62.5780 H           1 MOL       0.2100
     35 H15        22.0568   17.1458   62.9438 H           1 MOL       0.2101
     36 H16        24.5423   16.0059   59.3879 H           1 MOL       0.1995
     37 H17        25.6075   16.3978   60.6134 H           1 MOL       0.1995
     38 H18        24.7909   17.6034   59.7933 H           1 MOL       0.1995
@<TRIPOS>BOND
     1     1    14  ar
     2     1    13  ar
     3     1     2   1
     4     2    16   1
     5     2     3   2
     6     3     4   1
     7     4    15   1
     8     4     5   1
     9     5    12   1
    10     5     6   1
    11     6    16   1
    12     6     7   1
    13     7    17   1
    14     7     8   1
    15     8    18   1
    16     8     9   1
    17     9    19   1
    18    12    10  am
    19    10    20   2
    20    10    11   1
    21     3    21   1
    22     4    22   1
    23     5    23   1
    24     6    24   1
    25     7    25   1
    26     8    26   1
    27     9    27   1
    28     9    28   1
    29    11    29   1
    30    11    30   1
    31    11    31   1
    32    12    32   1
    33    15    33   1
    34    17    34   1
    35    18    35   1
    36    19    36   1
    37    19    37   1
    38    19    38   1
@<TRIPOS>SUBSTRUCTURE
     1  MOL      1

