@<TRIPOS>MOLECULE
1f8d_ligand_019
    38    38
SMALL
GAST_HUCK
****
This file was generated by PARSER (from files_GN.cpp)

@<TRIPOS>ATOM
      1 C1         22.9133   18.2387   67.8964 C.2         1 MOL       0.0809
      2 C2         23.6347   18.7297   66.8216 C.2         1 MOL       0.1088
      3 C3         24.5761   19.6889   66.9733 C.2         1 MOL      -0.0276
      4 C4         25.4501   20.0892   65.8775 C.3         1 MOL       0.1003
      5 C5         24.9181   19.6910   64.4686 C.3         1 MOL       0.1064
      6 C6         24.2921   18.2624   64.5402 C.3         1 MOL       0.1322
      7 C7         23.6327   17.7841   63.1922 C.3         1 MOL       0.1183
      8 C8         23.8650   16.2973   62.7778 C.3         1 MOL       0.1232
      9 C9         23.5121   16.0178   61.2910 C.3         1 MOL      -0.0062
     10 C10        27.1335   20.0221   63.2650 C.2         1 MOL       0.1734
     11 C11        27.7134   20.0964   61.9435 C.3         1 MOL       0.0257
     12 N5         25.8184   19.8325   63.3507 N.am        1 MOL      -0.2770
     13 O1A        23.3303   18.3738   69.1800 O.co2       1 MOL      -0.5623
     14 O1B        21.7888   17.5031   67.7000 O.co2       1 MOL      -0.5623
     15 O4         25.6489   21.4986   65.9029 O.3         1 MOL      -0.3807
     16 O6         23.2968   18.2524   65.5962 O.3         1 MOL      -0.3189
     17 O7         22.2284   18.0829   63.1964 O.3         1 MOL      -0.3860
     18 O8         25.2271   15.9004   62.9606 O.3         1 MOL      -0.3838
     19 N9         24.5318   16.5214   60.3449 N.4         1 MOL       0.2204
     20 O10        27.8508   20.1210   64.2611 O.2         1 MOL      -0.3974
     21 H1         24.8022   20.0333   67.8793 H           1 MOL       0.0480
     22 H2         26.4085   19.5999   66.0671 H           1 MOL       0.0740
     23 H3         24.0892   20.3755   64.2427 H           1 MOL       0.0632
     24 H4         25.0942   17.5750   64.8176 H           1 MOL       0.0697
     25 H5         24.0410   18.3798   62.3755 H           1 MOL       0.0652
     26 H6         23.2432   15.6597   63.4123 H           1 MOL       0.0674
     27 H7         22.5571   16.4727   61.0339 H           1 MOL       0.0840
     28 H8         23.4253   14.9426   61.1375 H           1 MOL       0.0840
     29 H9         28.7921   20.2845   61.9841 H           1 MOL       0.0467
     30 H10        27.2420   20.9075   61.3814 H           1 MOL       0.0467
     31 H11        27.5441   19.1543   61.4133 H           1 MOL       0.0467
     32 H12        25.3861   19.7576   62.4904 H           1 MOL       0.1858
     33 H13        25.8774   21.7284   66.8309 H           1 MOL       0.2127
     34 H14        21.7735   17.2521   63.4464 H           1 MOL       0.2100
     35 H15        25.3128   15.6532   63.9073 H           1 MOL       0.2101
     36 H16        24.3116   16.2068   59.3990 H           1 MOL       0.1995
     37 H17        25.4491   16.1604   60.6073 H           1 MOL       0.1995
     38 H18        24.5531   17.5446   60.3586 H           1 MOL       0.1995
@<TRIPOS>BOND
     1     1    14  ar
     2     1    13  ar
     3     1     2   1
     4     2    16   1
     5     2     3   2
     6     3     4   1
     7     4    15   1
     8     4     5   1
     9     5    12   1
    10     5     6   1
    11     6    16   1
    12     6     7   1
    13     7    17   1
    14     7     8   1
    15     8    18   1
    16     8     9   1
    17     9    19   1
    18    12    10  am
    19    10    20   2
    20    10    11   1
    21     3    21   1
    22     4    22   1
    23     5    23   1
    24     6    24   1
    25     7    25   1
    26     8    26   1
    27     9    27   1
    28     9    28   1
    29    11    29   1
    30    11    30   1
    31    11    31   1
    32    12    32   1
    33    15    33   1
    34    17    34   1
    35    18    35   1
    36    19    36   1
    37    19    37   1
    38    19    38   1
@<TRIPOS>SUBSTRUCTURE
     1  MOL      1

