@<TRIPOS>MOLECULE
1f8d_ligand_015
    38    38
SMALL
GAST_HUCK
****
This file was generated by PARSER (from files_GN.cpp)

@<TRIPOS>ATOM
      1 C1         26.3514   15.1607   62.7645 C.2         1 MOL       0.0809
      2 C2         26.8403   16.0672   63.6706 C.2         1 MOL       0.1088
      3 C3         28.1367   16.0948   64.0465 C.2         1 MOL      -0.0276
      4 C4         28.5663   16.9468   65.1344 C.3         1 MOL       0.1003
      5 C5         27.7715   18.3007   65.2268 C.3         1 MOL       0.1064
      6 C6         26.3624   18.2396   64.5090 C.3         1 MOL       0.1322
      7 C7         25.2458   18.9809   65.3285 C.3         1 MOL       0.1183
      8 C8         23.9706   19.3718   64.5161 C.3         1 MOL       0.1232
      9 C9         23.1917   18.2441   63.7950 C.3         1 MOL      -0.0062
     10 C10        28.9875   19.7284   63.5893 C.2         1 MOL       0.1734
     11 C11        29.7386   20.9522   63.3869 C.3         1 MOL       0.0257
     12 N5         28.5488   19.4446   64.8081 N.am        1 MOL      -0.2770
     13 O1A        26.7414   13.8575   62.7432 O.co2       1 MOL      -0.5623
     14 O1B        25.3993   15.5355   61.8637 O.co2       1 MOL      -0.5623
     15 O4         28.4084   16.1906   66.3367 O.3         1 MOL      -0.3807
     16 O6         25.9383   16.8708   64.2910 O.3         1 MOL      -0.3189
     17 O7         24.9182   18.2436   66.5147 O.3         1 MOL      -0.3860
     18 O8         23.0897   20.0985   65.3692 O.3         1 MOL      -0.3838
     19 N9         23.0577   17.0036   64.5702 N.4         1 MOL       0.2204
     20 O10        28.7508   18.9867   62.6349 O.2         1 MOL      -0.3974
     21 H1         28.8134   15.5037   63.6013 H           1 MOL       0.0480
     22 H2         29.6374   17.1510   65.0280 H           1 MOL       0.0740
     23 H3         27.6050   18.4823   66.2969 H           1 MOL       0.0632
     24 H4         26.4399   18.7328   63.5250 H           1 MOL       0.0697
     25 H5         25.6777   19.9274   65.6798 H           1 MOL       0.0652
     26 H6         24.2886   20.0774   63.7470 H           1 MOL       0.0674
     27 H7         23.6754   18.0021   62.8480 H           1 MOL       0.0840
     28 H8         22.1871   18.6000   63.5647 H           1 MOL       0.0840
     29 H9         29.9665   21.1074   62.3266 H           1 MOL       0.0467
     30 H10        30.6813   20.9052   63.9443 H           1 MOL       0.0467
     31 H11        29.1509   21.8082   63.7445 H           1 MOL       0.0467
     32 H12        28.7792   20.0784   65.5124 H           1 MOL       0.1858
     33 H13        27.4418   16.0369   66.4295 H           1 MOL       0.2127
     34 H14        25.1194   17.2986   66.3242 H           1 MOL       0.2100
     35 H15        22.9902   19.5570   66.1808 H           1 MOL       0.2101
     36 H16        22.2526   16.4738   64.2193 H           1 MOL       0.1995
     37 H17        22.9176   17.2174   65.5593 H           1 MOL       0.1995
     38 H18        23.9060   16.4449   64.4585 H           1 MOL       0.1995
@<TRIPOS>BOND
     1     1    14  ar
     2     1    13  ar
     3     1     2   1
     4     2    16   1
     5     2     3   2
     6     3     4   1
     7     4    15   1
     8     4     5   1
     9     5    12   1
    10     5     6   1
    11     6    16   1
    12     6     7   1
    13     7    17   1
    14     7     8   1
    15     8    18   1
    16     8     9   1
    17     9    19   1
    18    12    10  am
    19    10    20   2
    20    10    11   1
    21     3    21   1
    22     4    22   1
    23     5    23   1
    24     6    24   1
    25     7    25   1
    26     8    26   1
    27     9    27   1
    28     9    28   1
    29    11    29   1
    30    11    30   1
    31    11    31   1
    32    12    32   1
    33    15    33   1
    34    17    34   1
    35    18    35   1
    36    19    36   1
    37    19    37   1
    38    19    38   1
@<TRIPOS>SUBSTRUCTURE
     1  MOL      1

