@<TRIPOS>MOLECULE
1f8d_ligand_032
    38    38
SMALL
GAST_HUCK
****
This file was generated by PARSER (from files_GN.cpp)

@<TRIPOS>ATOM
      1 C1         24.1145   16.6632   60.9632 C.2         1 MOL       0.0809
      2 C2         25.0431   17.6096   61.3342 C.2         1 MOL       0.1088
      3 C3         25.0264   18.1876   62.5517 C.2         1 MOL      -0.0276
      4 C4         26.0098   19.1828   62.9484 C.3         1 MOL       0.1003
      5 C5         26.8508   19.7545   61.7620 C.3         1 MOL       0.1064
      6 C6         27.1362   18.6464   60.6962 C.3         1 MOL       0.1322
      7 C7         27.7828   19.1963   59.3824 C.3         1 MOL       0.1183
      8 C8         27.9066   18.2064   58.1833 C.3         1 MOL       0.1232
      9 C9         26.9375   16.9881   58.1094 C.3         1 MOL      -0.0062
     10 C10        28.8958   20.1351   63.1223 C.2         1 MOL       0.1734
     11 C11        30.0139   21.0138   63.3739 C.3         1 MOL       0.0257
     12 N5         28.0272   20.4710   62.1837 N.am        1 MOL      -0.2770
     13 O1A        24.5080   15.4967   60.3989 O.co2       1 MOL      -0.5623
     14 O1B        22.8142   17.0105   60.8433 O.co2       1 MOL      -0.5623
     15 O4         25.3419   20.2512   63.6138 O.3         1 MOL      -0.3807
     16 O6         25.8898   18.0048   60.3688 O.3         1 MOL      -0.3189
     17 O7         27.1207   20.3780   58.9392 O.3         1 MOL      -0.3860
     18 O8         27.7919   18.9664   56.9725 O.3         1 MOL      -0.3838
     19 N9         25.5359   17.3606   57.8857 N.4         1 MOL       0.2204
     20 O10        28.7754   19.1170   63.7897 O.2         1 MOL      -0.3974
     21 H1         24.3839   17.8664   63.2438 H           1 MOL       0.0480
     22 H2         26.6654   18.7074   63.6730 H           1 MOL       0.0740
     23 H3         26.2157   20.4949   61.2674 H           1 MOL       0.0632
     24 H4         27.8057   17.8866   61.1201 H           1 MOL       0.0697
     25 H5         28.8044   19.4972   59.6269 H           1 MOL       0.0652
     26 H6         28.9171   17.7923   58.2117 H           1 MOL       0.0674
     27 H7         27.0082   16.4068   59.0330 H           1 MOL       0.0840
     28 H8         27.2353   16.3283   57.2933 H           1 MOL       0.0840
     29 H9         30.6458   20.6333   64.1787 H           1 MOL       0.0467
     30 H10        29.6353   21.9939   63.6598 H           1 MOL       0.0467
     31 H11        30.6200   21.1131   62.4764 H           1 MOL       0.0467
     32 H12        28.2305   21.2806   61.6815 H           1 MOL       0.1858
     33 H13        25.1382   19.9164   64.5112 H           1 MOL       0.2127
     34 H14        27.5078   21.1124   59.4628 H           1 MOL       0.2100
     35 H15        28.4349   18.5736   56.3422 H           1 MOL       0.2101
     36 H16        24.9467   16.5596   58.0904 H           1 MOL       0.1995
     37 H17        25.4019   17.6396   56.9091 H           1 MOL       0.1995
     38 H18        25.2693   18.1198   58.5176 H           1 MOL       0.1995
@<TRIPOS>BOND
     1     1    14  ar
     2     1    13  ar
     3     1     2   1
     4     2    16   1
     5     2     3   2
     6     3     4   1
     7     4    15   1
     8     4     5   1
     9     5    12   1
    10     5     6   1
    11     6    16   1
    12     6     7   1
    13     7    17   1
    14     7     8   1
    15     8    18   1
    16     8     9   1
    17     9    19   1
    18    12    10  am
    19    10    20   2
    20    10    11   1
    21     3    21   1
    22     4    22   1
    23     5    23   1
    24     6    24   1
    25     7    25   1
    26     8    26   1
    27     9    27   1
    28     9    28   1
    29    11    29   1
    30    11    30   1
    31    11    31   1
    32    12    32   1
    33    15    33   1
    34    17    34   1
    35    18    35   1
    36    19    36   1
    37    19    37   1
    38    19    38   1
@<TRIPOS>SUBSTRUCTURE
     1  MOL      1

