@<TRIPOS>MOLECULE
1f8d_ligand_035
    38    38
SMALL
GAST_HUCK
****
This file was generated by PARSER (from files_GN.cpp)

@<TRIPOS>ATOM
      1 C1         28.0056   19.6956   58.6069 C.2         1 MOL       0.0809
      2 C2         27.7002   19.3421   59.9118 C.2         1 MOL       0.1088
      3 C3         27.0528   20.1674   60.7639 C.2         1 MOL      -0.0276
      4 C4         26.8426   19.7420   62.1336 C.3         1 MOL       0.1003
      5 C5         26.5002   18.2145   62.2525 C.3         1 MOL       0.1064
      6 C6         27.0048   17.3895   61.0040 C.3         1 MOL       0.1322
      7 C7         27.4834   15.9413   61.3253 C.3         1 MOL       0.1183
      8 C8         27.6595   14.9958   60.0783 C.3         1 MOL       0.1232
      9 C9         26.7822   13.7216   60.1422 C.3         1 MOL      -0.0062
     10 C10        24.3964   17.4466   63.3142 C.2         1 MOL       0.1734
     11 C11        22.9524   17.5313   63.3198 C.3         1 MOL       0.0257
     12 N5         25.0735   18.0709   62.3605 N.am        1 MOL      -0.2770
     13 O1A        27.0606   20.2268   57.7860 O.co2       1 MOL      -0.5623
     14 O1B        29.2013   19.3700   58.0618 O.co2       1 MOL      -0.5623
     15 O4         28.0430   20.0632   62.8330 O.3         1 MOL      -0.3807
     16 O6         28.0729   18.1050   60.3248 O.3         1 MOL      -0.3189
     17 O7         28.7044   16.0089   62.0634 O.3         1 MOL      -0.3860
     18 O8         27.3932   15.6280   58.8249 O.3         1 MOL      -0.3838
     19 N9         25.3460   14.0321   60.1567 N.4         1 MOL       0.2204
     20 O10        24.9610   16.8115   64.1983 O.2         1 MOL      -0.3974
     21 H1         26.7428   21.0654   60.4651 H           1 MOL       0.0480
     22 H2         26.0533   20.3520   62.5747 H           1 MOL       0.0740
     23 H3         27.0011   17.8398   63.1517 H           1 MOL       0.0632
     24 H4         26.1650   17.2964   60.3027 H           1 MOL       0.0697
     25 H5         26.7571   15.5027   62.0164 H           1 MOL       0.0652
     26 H6         28.6986   14.6647   60.0303 H           1 MOL       0.0674
     27 H7         27.0283   13.1415   61.0350 H           1 MOL       0.0840
     28 H8         26.9789   13.0960   59.2703 H           1 MOL       0.0840
     29 H9         22.5240   16.9224   64.1183 H           1 MOL       0.0467
     30 H10        22.5459   17.1915   62.3653 H           1 MOL       0.0467
     31 H11        22.6458   18.5661   63.4830 H           1 MOL       0.0467
     32 H12        24.5516   18.4969   61.6557 H           1 MOL       0.1858
     33 H13        27.8042   20.0466   63.7823 H           1 MOL       0.2127
     34 H14        29.3726   16.3557   61.4355 H           1 MOL       0.2100
     35 H15        27.8295   16.5014   58.8690 H           1 MOL       0.2101
     36 H16        24.8116   13.1604   60.1755 H           1 MOL       0.1995
     37 H17        25.0934   14.5598   59.3170 H           1 MOL       0.1995
     38 H18        25.1183   14.5848   60.9846 H           1 MOL       0.1995
@<TRIPOS>BOND
     1     1    14  ar
     2     1    13  ar
     3     1     2   1
     4     2    16   1
     5     2     3   2
     6     3     4   1
     7     4    15   1
     8     4     5   1
     9     5    12   1
    10     5     6   1
    11     6    16   1
    12     6     7   1
    13     7    17   1
    14     7     8   1
    15     8    18   1
    16     8     9   1
    17     9    19   1
    18    12    10  am
    19    10    20   2
    20    10    11   1
    21     3    21   1
    22     4    22   1
    23     5    23   1
    24     6    24   1
    25     7    25   1
    26     8    26   1
    27     9    27   1
    28     9    28   1
    29    11    29   1
    30    11    30   1
    31    11    31   1
    32    12    32   1
    33    15    33   1
    34    17    34   1
    35    18    35   1
    36    19    36   1
    37    19    37   1
    38    19    38   1
@<TRIPOS>SUBSTRUCTURE
     1  MOL      1

