@<TRIPOS>MOLECULE
1f8d_ligand_043
    38    38
SMALL
GAST_HUCK
****
This file was generated by PARSER (from files_GN.cpp)

@<TRIPOS>ATOM
      1 C1         27.2313   17.3698   60.8049 C.2         1 MOL       0.0809
      2 C2         27.7263   18.2667   61.7419 C.2         1 MOL       0.1088
      3 C3         28.8318   19.0038   61.5163 C.2         1 MOL      -0.0276
      4 C4         29.3167   19.9994   62.4579 C.3         1 MOL       0.1003
      5 C5         28.6618   19.9213   63.8742 C.3         1 MOL       0.1064
      6 C6         27.1565   19.5536   63.7046 C.3         1 MOL       0.1322
      7 C7         26.3937   19.3576   65.0595 C.3         1 MOL       0.1183
      8 C8         24.8531   19.2233   64.9065 C.3         1 MOL       0.1232
      9 C9         24.0935   19.1057   66.2675 C.3         1 MOL      -0.0062
     10 C10        29.0844   21.3971   65.8185 C.2         1 MOL       0.1734
     11 C11        29.1716   22.7586   66.2932 C.3         1 MOL       0.0257
     12 N5         28.8387   21.1868   64.5311 N.am        1 MOL      -0.2770
     13 O1A        26.0209   16.8032   60.9998 O.co2       1 MOL      -0.5623
     14 O1B        27.9093   17.0055   59.6928 O.co2       1 MOL      -0.5623
     15 O4         30.7318   19.8822   62.5884 O.3         1 MOL      -0.3807
     16 O6         27.0511   18.3444   62.9128 O.3         1 MOL      -0.3189
     17 O7         26.9203   18.2278   65.7535 O.3         1 MOL      -0.3860
     18 O8         24.3567   20.3626   64.1987 O.3         1 MOL      -0.3838
     19 N9         23.7106   17.7222   66.5717 N.4         1 MOL       0.2204
     20 O10        29.1784   20.4750   66.6160 O.2         1 MOL      -0.3974
     21 H1         29.2758   18.9621   60.6310 H           1 MOL       0.0480
     22 H2         29.1062   20.9761   62.0144 H           1 MOL       0.0740
     23 H3         29.1591   19.1216   64.4320 H           1 MOL       0.0632
     24 H4         26.6688   20.3576   63.1482 H           1 MOL       0.0697
     25 H5         26.5684   20.2339   65.6872 H           1 MOL       0.0652
     26 H6         24.6541   18.3494   64.2812 H           1 MOL       0.0674
     27 H7         23.1742   19.6922   66.2432 H           1 MOL       0.0840
     28 H8         24.6983   19.4979   67.0915 H           1 MOL       0.0840
     29 H9         29.3505   22.7973   67.3700 H           1 MOL       0.0467
     30 H10        28.2387   23.2857   66.0832 H           1 MOL       0.0467
     31 H11        29.9904   23.2754   65.7890 H           1 MOL       0.0467
     32 H12        28.7501   21.9743   63.9761 H           1 MOL       0.1858
     33 H13        31.0897   20.0848   61.6978 H           1 MOL       0.2127
     34 H14        26.7320   17.4469   65.1887 H           1 MOL       0.2100
     35 H15        23.6831   20.0261   63.5728 H           1 MOL       0.2101
     36 H16        23.2238   17.6969   67.4722 H           1 MOL       0.1995
     37 H17        24.5379   17.1232   66.6141 H           1 MOL       0.1995
     38 H18        23.0830   17.3818   65.8426 H           1 MOL       0.1995
@<TRIPOS>BOND
     1     1    14  ar
     2     1    13  ar
     3     1     2   1
     4     2    16   1
     5     2     3   2
     6     3     4   1
     7     4    15   1
     8     4     5   1
     9     5    12   1
    10     5     6   1
    11     6    16   1
    12     6     7   1
    13     7    17   1
    14     7     8   1
    15     8    18   1
    16     8     9   1
    17     9    19   1
    18    12    10  am
    19    10    20   2
    20    10    11   1
    21     3    21   1
    22     4    22   1
    23     5    23   1
    24     6    24   1
    25     7    25   1
    26     8    26   1
    27     9    27   1
    28     9    28   1
    29    11    29   1
    30    11    30   1
    31    11    31   1
    32    12    32   1
    33    15    33   1
    34    17    34   1
    35    18    35   1
    36    19    36   1
    37    19    37   1
    38    19    38   1
@<TRIPOS>SUBSTRUCTURE
     1  MOL      1

