@<TRIPOS>MOLECULE
1f8d_ligand_012
    38    38
SMALL
GAST_HUCK
****
This file was generated by PARSER (from files_GN.cpp)

@<TRIPOS>ATOM
      1 C1         25.1600   20.7726   66.4115 C.2         1 MOL       0.0809
      2 C2         24.6254   20.0727   65.3494 C.2         1 MOL       0.1088
      3 C3         23.7001   19.1027   65.4805 C.2         1 MOL      -0.0276
      4 C4         23.2446   18.3910   64.2962 C.3         1 MOL       0.1003
      5 C5         24.4757   18.0066   63.4063 C.3         1 MOL       0.1064
      6 C6         25.4306   19.2540   63.2621 C.3         1 MOL       0.1322
      7 C7         26.9533   18.9296   63.4236 C.3         1 MOL       0.1183
      8 C8         27.8840   20.0821   62.9478 C.3         1 MOL       0.1232
      9 C9         29.3908   19.7075   62.9796 C.3         1 MOL      -0.0062
     10 C10        23.5530   16.3311   61.8254 C.2         1 MOL       0.1734
     11 C11        23.3278   15.9834   60.4477 C.3         1 MOL       0.0257
     12 N5         24.0948   17.5085   62.1053 N.am        1 MOL      -0.2770
     13 O1A        26.0429   21.7680   66.1795 O.co2       1 MOL      -0.5623
     14 O1B        24.8990   20.4524   67.7011 O.co2       1 MOL      -0.5623
     15 O4         22.4826   17.2582   64.7068 O.3         1 MOL      -0.3807
     16 O6         25.0637   20.3806   64.1088 O.3         1 MOL      -0.3189
     17 O7         27.2588   18.6324   64.7935 O.3         1 MOL      -0.3860
     18 O8         27.5455   20.4609   61.6082 O.3         1 MOL      -0.3838
     19 N9         30.2463   20.8749   62.7301 N.4         1 MOL       0.2204
     20 O10        23.2996   15.5078   62.6952 O.2         1 MOL      -0.3974
     21 H1         23.3664   18.8292   66.3754 H           1 MOL       0.0480
     22 H2         22.5796   19.0479   63.7312 H           1 MOL       0.0740
     23 H3         25.0180   17.2108   63.9223 H           1 MOL       0.0632
     24 H4         25.3010   19.6524   62.2529 H           1 MOL       0.0697
     25 H5         27.1880   18.0379   62.8348 H           1 MOL       0.0652
     26 H6         27.7316   20.9486   63.5972 H           1 MOL       0.0674
     27 H7         29.6086   18.9467   62.2309 H           1 MOL       0.0840
     28 H8         29.6588   19.3107   63.9633 H           1 MOL       0.0840
     29 H9         22.8357   15.0124   60.3509 H           1 MOL       0.0467
     30 H10        24.2830   15.9361   59.9253 H           1 MOL       0.0467
     31 H11        22.7002   16.7344   59.9674 H           1 MOL       0.0467
     32 H12        24.2915   18.0742   61.3421 H           1 MOL       0.1858
     33 H13        21.9543   16.9792   63.9342 H           1 MOL       0.2127
     34 H14        26.8716   17.7504   64.9758 H           1 MOL       0.2100
     35 H15        28.1702   21.1666   61.3441 H           1 MOL       0.2101
     36 H16        31.2111   20.6307   62.9396 H           1 MOL       0.1995
     37 H17        29.9560   21.6537   63.3307 H           1 MOL       0.1995
     38 H18        30.1816   21.1472   61.7436 H           1 MOL       0.1995
@<TRIPOS>BOND
     1     1    14  ar
     2     1    13  ar
     3     1     2   1
     4     2    16   1
     5     2     3   2
     6     3     4   1
     7     4    15   1
     8     4     5   1
     9     5    12   1
    10     5     6   1
    11     6    16   1
    12     6     7   1
    13     7    17   1
    14     7     8   1
    15     8    18   1
    16     8     9   1
    17     9    19   1
    18    12    10  am
    19    10    20   2
    20    10    11   1
    21     3    21   1
    22     4    22   1
    23     5    23   1
    24     6    24   1
    25     7    25   1
    26     8    26   1
    27     9    27   1
    28     9    28   1
    29    11    29   1
    30    11    30   1
    31    11    31   1
    32    12    32   1
    33    15    33   1
    34    17    34   1
    35    18    35   1
    36    19    36   1
    37    19    37   1
    38    19    38   1
@<TRIPOS>SUBSTRUCTURE
     1  MOL      1

