@<TRIPOS>MOLECULE
1f8d_ligand_004
    38    38
SMALL
GAST_HUCK
****
This file was generated by PARSER (from files_GN.cpp)

@<TRIPOS>ATOM
      1 C1         24.2750   20.0469   65.0339 C.2         1 MOL       0.0809
      2 C2         25.1742   19.1272   64.5237 C.2         1 MOL       0.1088
      3 C3         24.9622   17.7972   64.5646 C.2         1 MOL      -0.0276
      4 C4         25.8702   16.9283   63.8364 C.3         1 MOL       0.1003
      5 C5         26.1461   17.5203   62.4113 C.3         1 MOL       0.1064
      6 C6         26.4030   19.0844   62.5115 C.3         1 MOL       0.1322
      7 C7         27.7024   19.6043   61.8157 C.3         1 MOL       0.1183
      8 C8         29.0874   18.9982   62.2228 C.3         1 MOL       0.1232
      9 C9         29.9267   19.8420   63.2169 C.3         1 MOL      -0.0062
     10 C10        24.5032   16.1051   61.2135 C.2         1 MOL       0.1734
     11 C11        23.3560   16.1140   60.3397 C.3         1 MOL       0.0257
     12 N5         25.0498   17.2709   61.5137 N.am        1 MOL      -0.2770
     13 O1A        22.9856   19.7327   65.3227 O.co2       1 MOL      -0.5623
     14 O1B        24.6387   21.3414   65.1445 O.co2       1 MOL      -0.5623
     15 O4         27.0880   16.8170   64.5742 O.3         1 MOL      -0.3807
     16 O6         26.2826   19.5785   63.8765 O.3         1 MOL      -0.3189
     17 O7         27.5423   19.4837   60.3981 O.3         1 MOL      -0.3860
     18 O8         28.9639   17.6759   62.7436 O.3         1 MOL      -0.3838
     19 N9         30.0627   21.2361   62.7813 N.4         1 MOL       0.2204
     20 O10        24.9242   15.0430   61.6568 O.2         1 MOL      -0.3974
     21 H1         24.1526   17.4058   64.9932 H           1 MOL       0.0480
     22 H2         25.4498   15.9229   63.7677 H           1 MOL       0.0740
     23 H3         27.0109   17.0094   61.9891 H           1 MOL       0.0632
     24 H4         25.5977   19.6033   61.9774 H           1 MOL       0.0697
     25 H5         27.7517   20.6814   61.9966 H           1 MOL       0.0652
     26 H6         29.6860   18.9064   61.3096 H           1 MOL       0.0674
     27 H7         30.9325   19.4198   63.2790 H           1 MOL       0.0840
     28 H8         29.4869   19.8172   64.2159 H           1 MOL       0.0840
     29 H9         22.9848   15.1062   60.1373 H           1 MOL       0.0467
     30 H10        23.6247   16.5859   59.3934 H           1 MOL       0.0467
     31 H11        22.5601   16.6989   60.8065 H           1 MOL       0.0467
     32 H12        24.6846   18.0384   61.0434 H           1 MOL       0.1858
     33 H13        26.8352   16.3749   65.4113 H           1 MOL       0.2127
     34 H14        27.5213   18.5225   60.2054 H           1 MOL       0.2100
     35 H15        29.8622   17.2777   62.6810 H           1 MOL       0.2101
     36 H16        30.9123   21.6378   63.1866 H           1 MOL       0.1995
     37 H17        29.2523   21.7709   63.0977 H           1 MOL       0.1995
     38 H18        30.1112   21.2846   61.7560 H           1 MOL       0.1995
@<TRIPOS>BOND
     1     1    14  ar
     2     1    13  ar
     3     1     2   1
     4     2    16   1
     5     2     3   2
     6     3     4   1
     7     4    15   1
     8     4     5   1
     9     5    12   1
    10     5     6   1
    11     6    16   1
    12     6     7   1
    13     7    17   1
    14     7     8   1
    15     8    18   1
    16     8     9   1
    17     9    19   1
    18    12    10  am
    19    10    20   2
    20    10    11   1
    21     3    21   1
    22     4    22   1
    23     5    23   1
    24     6    24   1
    25     7    25   1
    26     8    26   1
    27     9    27   1
    28     9    28   1
    29    11    29   1
    30    11    30   1
    31    11    31   1
    32    12    32   1
    33    15    33   1
    34    17    34   1
    35    18    35   1
    36    19    36   1
    37    19    37   1
    38    19    38   1
@<TRIPOS>SUBSTRUCTURE
     1  MOL      1

