@<TRIPOS>MOLECULE
1f8d_ligand_027
    38    38
SMALL
GAST_HUCK
****
This file was generated by PARSER (from files_GN.cpp)

@<TRIPOS>ATOM
      1 C1         27.2580   20.2587   60.5764 C.2         1 MOL       0.0809
      2 C2         27.3874   20.1055   61.9337 C.2         1 MOL       0.1088
      3 C3         28.3039   20.7751   62.6594 C.2         1 MOL      -0.0276
      4 C4         28.4167   20.6198   64.0960 C.3         1 MOL       0.1003
      5 C5         27.4348   19.5712   64.7347 C.3         1 MOL       0.1064
      6 C6         26.1299   19.4589   63.8612 C.3         1 MOL       0.1322
      7 C7         25.0827   18.3546   64.2663 C.3         1 MOL       0.1183
      8 C8         23.8692   18.7739   65.1785 C.3         1 MOL       0.1232
      9 C9         24.1424   18.7387   66.7129 C.3         1 MOL      -0.0062
     10 C10        26.6556   20.8049   66.7432 C.2         1 MOL       0.1734
     11 C11        26.7211   20.8919   68.1869 C.3         1 MOL       0.0257
     12 N5         27.2823   19.8101   66.1367 N.am        1 MOL      -0.2770
     13 O1A        27.3408   19.1891   59.7506 O.co2       1 MOL      -0.5623
     14 O1B        26.8510   21.4458   60.0448 O.co2       1 MOL      -0.5623
     15 O4         29.7602   20.2640   64.4264 O.3         1 MOL      -0.3807
     16 O6         26.5913   19.1737   62.5150 O.3         1 MOL      -0.3189
     17 O7         24.5072   17.7842   63.0814 O.3         1 MOL      -0.3860
     18 O8         23.3273   20.0524   64.8062 O.3         1 MOL      -0.3838
     19 N9         23.4949   17.6189   67.4064 N.4         1 MOL       0.2204
     20 O10        26.0195   21.6408   66.1185 O.2         1 MOL      -0.3974
     21 H1         28.9034   21.4401   62.2054 H           1 MOL       0.0480
     22 H2         28.2378   21.6040   64.5220 H           1 MOL       0.0740
     23 H3         27.9184   18.5926   64.6498 H           1 MOL       0.0632
     24 H4         25.6187   20.4250   63.8429 H           1 MOL       0.0697
     25 H5         25.6044   17.5227   64.7443 H           1 MOL       0.0652
     26 H6         23.0505   18.0661   64.9906 H           1 MOL       0.0674
     27 H7         23.7953   19.6603   67.1868 H           1 MOL       0.0840
     28 H8         25.2054   18.6283   66.9123 H           1 MOL       0.0840
     29 H9         26.1096   21.7118   68.5609 H           1 MOL       0.0467
     30 H10        27.7503   21.0576   68.5003 H           1 MOL       0.0467
     31 H11        26.3605   19.9658   68.6283 H           1 MOL       0.0467
     32 H12        27.7379   19.1804   66.7143 H           1 MOL       0.1858
     33 H13        30.2923   21.0796   64.3050 H           1 MOL       0.2127
     34 H14        24.0655   18.5294   62.6223 H           1 MOL       0.2100
     35 H15        23.1764   20.0006   63.8383 H           1 MOL       0.2101
     36 H16        23.6975   17.6865   68.4064 H           1 MOL       0.1995
     37 H17        23.8749   16.7420   67.0516 H           1 MOL       0.1995
     38 H18        22.4823   17.6458   67.2623 H           1 MOL       0.1995
@<TRIPOS>BOND
     1     1    14  ar
     2     1    13  ar
     3     1     2   1
     4     2    16   1
     5     2     3   2
     6     3     4   1
     7     4    15   1
     8     4     5   1
     9     5    12   1
    10     5     6   1
    11     6    16   1
    12     6     7   1
    13     7    17   1
    14     7     8   1
    15     8    18   1
    16     8     9   1
    17     9    19   1
    18    12    10  am
    19    10    20   2
    20    10    11   1
    21     3    21   1
    22     4    22   1
    23     5    23   1
    24     6    24   1
    25     7    25   1
    26     8    26   1
    27     9    27   1
    28     9    28   1
    29    11    29   1
    30    11    30   1
    31    11    31   1
    32    12    32   1
    33    15    33   1
    34    17    34   1
    35    18    35   1
    36    19    36   1
    37    19    37   1
    38    19    38   1
@<TRIPOS>SUBSTRUCTURE
     1  MOL      1

