@<TRIPOS>MOLECULE
1f8d_ligand_056
    38    38
SMALL
GAST_HUCK
****
This file was generated by PARSER (from files_GN.cpp)

@<TRIPOS>ATOM
      1 C1         28.1551   19.4909   59.1862 C.2         1 MOL       0.0809
      2 C2         28.0350   18.5140   60.1285 C.2         1 MOL       0.1088
      3 C3         28.9302   18.3295   61.1194 C.2         1 MOL      -0.0276
      4 C4         28.6954   17.2761   62.0888 C.3         1 MOL       0.1003
      5 C5         27.1688   17.1586   62.4805 C.3         1 MOL       0.1064
      6 C6         26.2131   17.4800   61.2676 C.3         1 MOL       0.1322
      7 C7         24.9938   16.5367   60.9253 C.3         1 MOL       0.1183
      8 C8         24.9654   15.0288   61.3426 C.3         1 MOL       0.1232
      9 C9         26.1399   14.1714   60.7907 C.3         1 MOL      -0.0062
     10 C10        25.9331   18.0086   64.4462 C.2         1 MOL       0.1734
     11 C11        25.9143   18.9411   65.5492 C.3         1 MOL       0.0257
     12 N5         26.9448   18.0501   63.5957 N.am        1 MOL      -0.2770
     13 O1A        27.2206   20.4732   59.0720 O.co2       1 MOL      -0.5623
     14 O1B        29.1009   19.4091   58.2121 O.co2       1 MOL      -0.5623
     15 O4         29.1973   16.0660   61.5238 O.3         1 MOL      -0.3807
     16 O6         26.9659   17.6797   60.0404 O.3         1 MOL      -0.3189
     17 O7         23.7977   17.1108   61.4451 O.3         1 MOL      -0.3860
     18 O8         24.8790   14.8760   62.7553 O.3         1 MOL      -0.3838
     19 N9         25.9001   13.6983   59.4267 N.4         1 MOL       0.2204
     20 O10        25.0325   17.1882   64.3511 O.2         1 MOL      -0.3974
     21 H1         29.7064   18.9516   61.2263 H           1 MOL       0.0480
     22 H2         29.3131   17.4621   62.9759 H           1 MOL       0.0740
     23 H3         27.0354   16.1362   62.8479 H           1 MOL       0.0632
     24 H4         25.7839   18.4713   61.4532 H           1 MOL       0.0697
     25 H5         24.8574   16.5444   59.8531 H           1 MOL       0.0652
     26 H6         24.0409   14.5894   60.9477 H           1 MOL       0.0674
     27 H7         26.2880   13.2870   61.4215 H           1 MOL       0.0840
     28 H8         27.0612   14.7406   60.7897 H           1 MOL       0.0840
     29 H9         25.0560   18.7730   66.2066 H           1 MOL       0.0467
     30 H10        25.8614   19.9637   65.1683 H           1 MOL       0.0467
     31 H11        26.8256   18.8302   66.1433 H           1 MOL       0.0467
     32 H12        27.6138   18.7346   63.7584 H           1 MOL       0.1858
     33 H13        28.7834   15.9897   60.6419 H           1 MOL       0.2127
     34 H14        23.6429   17.9176   60.9048 H           1 MOL       0.2100
     35 H15        24.0162   15.2865   63.0055 H           1 MOL       0.2101
     36 H16        26.7757   13.3065   59.0443 H           1 MOL       0.1995
     37 H17        25.5796   14.4587   58.8259 H           1 MOL       0.1995
     38 H18        25.1903   12.9606   59.4372 H           1 MOL       0.1995
@<TRIPOS>BOND
     1     1    14  ar
     2     1    13  ar
     3     1     2   1
     4     2    16   1
     5     2     3   2
     6     3     4   1
     7     4    15   1
     8     4     5   1
     9     5    12   1
    10     5     6   1
    11     6    16   1
    12     6     7   1
    13     7    17   1
    14     7     8   1
    15     8    18   1
    16     8     9   1
    17     9    19   1
    18    12    10  am
    19    10    20   2
    20    10    11   1
    21     3    21   1
    22     4    22   1
    23     5    23   1
    24     6    24   1
    25     7    25   1
    26     8    26   1
    27     9    27   1
    28     9    28   1
    29    11    29   1
    30    11    30   1
    31    11    31   1
    32    12    32   1
    33    15    33   1
    34    17    34   1
    35    18    35   1
    36    19    36   1
    37    19    37   1
    38    19    38   1
@<TRIPOS>SUBSTRUCTURE
     1  MOL      1

