@<TRIPOS>MOLECULE
1f8d_ligand_058
    38    38
SMALL
GAST_HUCK
****
This file was generated by PARSER (from files_GN.cpp)

@<TRIPOS>ATOM
      1 C1         27.9495   19.7430   59.3447 C.2         1 MOL       0.0809
      2 C2         27.8056   19.1727   60.5961 C.2         1 MOL       0.1088
      3 C3         28.8160   18.5379   61.2199 C.2         1 MOL      -0.0276
      4 C4         28.6918   17.9795   62.5567 C.3         1 MOL       0.1003
      5 C5         27.3303   18.2947   63.2711 C.3         1 MOL       0.1064
      6 C6         26.1833   18.3984   62.2124 C.3         1 MOL       0.1322
      7 C7         25.6994   17.0218   61.6208 C.3         1 MOL       0.1183
      8 C8         24.2484   16.6010   62.0209 C.3         1 MOL       0.1232
      9 C9         24.0810   16.1796   63.5194 C.3         1 MOL      -0.0062
     10 C10        28.0055   19.7356   65.1573 C.2         1 MOL       0.1734
     11 C11        27.8751   21.0232   65.7983 C.3         1 MOL       0.0257
     12 N5         27.3873   19.5356   64.0031 N.am        1 MOL      -0.2770
     13 O1A        27.0626   20.6728   58.9164 O.co2       1 MOL      -0.5623
     14 O1B        28.9317   19.3847   58.4826 O.co2       1 MOL      -0.5623
     15 O4         28.8911   16.5691   62.4427 O.3         1 MOL      -0.3807
     16 O6         26.6038   19.3460   61.2025 O.3         1 MOL      -0.3189
     17 O7         25.8178   17.0048   60.1951 O.3         1 MOL      -0.3860
     18 O8         23.3205   17.6312   61.6800 O.3         1 MOL      -0.3838
     19 N9         23.0993   16.9706   64.2718 N.4         1 MOL       0.2204
     20 O10        28.6453   18.8502   65.7094 O.2         1 MOL      -0.3974
     21 H1         29.6952   18.4298   60.7624 H           1 MOL       0.0480
     22 H2         29.5192   18.3592   63.1590 H           1 MOL       0.0740
     23 H3         27.0967   17.5008   63.9846 H           1 MOL       0.0632
     24 H4         25.3202   18.8667   62.7004 H           1 MOL       0.0697
     25 H5         26.3658   16.2201   61.9560 H           1 MOL       0.0652
     26 H6         23.9720   15.7402   61.4056 H           1 MOL       0.0674
     27 H7         25.0322   16.2573   64.0507 H           1 MOL       0.0840
     28 H8         23.7691   15.1322   63.5751 H           1 MOL       0.0840
     29 H9         28.4230   21.0559   66.7434 H           1 MOL       0.0467
     30 H10        26.8227   21.2242   66.0047 H           1 MOL       0.0467
     31 H11        28.2668   21.8030   65.1440 H           1 MOL       0.0467
     32 H12        26.8671   20.2783   63.6524 H           1 MOL       0.1858
     33 H13        28.9648   16.2381   63.3617 H           1 MOL       0.2127
     34 H14        25.3230   17.7812   59.8717 H           1 MOL       0.2100
     35 H15        23.6324   17.9879   60.8083 H           1 MOL       0.2101
     36 H16        23.1538   16.7228   65.2633 H           1 MOL       0.1995
     37 H17        22.1599   16.7653   63.9307 H           1 MOL       0.1995
     38 H18        23.2949   17.9677   64.1591 H           1 MOL       0.1995
@<TRIPOS>BOND
     1     1    14  ar
     2     1    13  ar
     3     1     2   1
     4     2    16   1
     5     2     3   2
     6     3     4   1
     7     4    15   1
     8     4     5   1
     9     5    12   1
    10     5     6   1
    11     6    16   1
    12     6     7   1
    13     7    17   1
    14     7     8   1
    15     8    18   1
    16     8     9   1
    17     9    19   1
    18    12    10  am
    19    10    20   2
    20    10    11   1
    21     3    21   1
    22     4    22   1
    23     5    23   1
    24     6    24   1
    25     7    25   1
    26     8    26   1
    27     9    27   1
    28     9    28   1
    29    11    29   1
    30    11    30   1
    31    11    31   1
    32    12    32   1
    33    15    33   1
    34    17    34   1
    35    18    35   1
    36    19    36   1
    37    19    37   1
    38    19    38   1
@<TRIPOS>SUBSTRUCTURE
     1  MOL      1

