@<TRIPOS>MOLECULE
1f8d_ligand_023
    38    38
SMALL
GAST_HUCK
****
This file was generated by PARSER (from files_GN.cpp)

@<TRIPOS>ATOM
      1 C1         30.6960   18.9089   63.0986 C.2         1 MOL       0.0809
      2 C2         29.5944   18.1071   63.1123 C.2         1 MOL       0.1088
      3 C3         29.1099   17.5782   64.2565 C.2         1 MOL      -0.0276
      4 C4         27.9100   16.7635   64.2857 C.3         1 MOL       0.1003
      5 C5         27.4903   16.2198   62.8903 C.3         1 MOL       0.1064
      6 C6         27.7208   17.3169   61.8027 C.3         1 MOL       0.1322
      7 C7         27.4138   16.8414   60.3456 C.3         1 MOL       0.1183
      8 C8         27.5871   17.9515   59.2619 C.3         1 MOL       0.1232
      9 C9         27.0360   17.5787   57.8545 C.3         1 MOL      -0.0062
     10 C10        25.6290   14.5873   62.8791 C.2         1 MOL       0.1734
     11 C11        24.2004   14.3890   62.7429 C.3         1 MOL       0.0257
     12 N5         26.1074   15.8222   62.9066 N.am        1 MOL      -0.2770
     13 O1A        30.5718   20.2345   63.3655 O.co2       1 MOL      -0.5623
     14 O1B        31.9433   18.3869   62.9489 O.co2       1 MOL      -0.5623
     15 O4         28.1476   15.6822   65.1838 O.3         1 MOL      -0.3807
     16 O6         29.0845   17.7782   61.8833 O.3         1 MOL      -0.3189
     17 O7         28.2575   15.7355   60.0123 O.3         1 MOL      -0.3860
     18 O8         26.9744   19.1755   59.6706 O.3         1 MOL      -0.3838
     19 N9         25.5767   17.3859   57.7962 N.4         1 MOL       0.2204
     20 O10        26.3588   13.6004   62.9599 O.2         1 MOL      -0.3974
     21 H1         29.5216   17.8521   65.1289 H           1 MOL       0.0480
     22 H2         27.1129   17.3739   64.7047 H           1 MOL       0.0740
     23 H3         28.1427   15.3746   62.6546 H           1 MOL       0.0632
     24 H4         27.0603   18.1573   62.0334 H           1 MOL       0.0697
     25 H5         26.3787   16.4934   60.3096 H           1 MOL       0.0652
     26 H6         28.6501   18.1639   59.1478 H           1 MOL       0.0674
     27 H7         27.5132   16.6670   57.4848 H           1 MOL       0.0840
     28 H8         27.2831   18.3857   57.1521 H           1 MOL       0.0840
     29 H9         23.9310   13.3280   62.7888 H           1 MOL       0.0467
     30 H10        23.8656   14.7838   61.7767 H           1 MOL       0.0467
     31 H11        23.6629   14.9117   63.5425 H           1 MOL       0.0467
     32 H12        25.4484   16.5391   62.8881 H           1 MOL       0.1858
     33 H13        27.3462   15.6408   65.7658 H           1 MOL       0.2127
     34 H14        27.7749   15.2321   59.3305 H           1 MOL       0.2100
     35 H15        26.1810   18.8926   60.1957 H           1 MOL       0.2101
     36 H16        25.2714   17.4448   56.8193 H           1 MOL       0.1995
     37 H17        25.1146   18.1161   58.3469 H           1 MOL       0.1995
     38 H18        25.3060   16.4728   58.1657 H           1 MOL       0.1995
@<TRIPOS>BOND
     1     1    14  ar
     2     1    13  ar
     3     1     2   1
     4     2    16   1
     5     2     3   2
     6     3     4   1
     7     4    15   1
     8     4     5   1
     9     5    12   1
    10     5     6   1
    11     6    16   1
    12     6     7   1
    13     7    17   1
    14     7     8   1
    15     8    18   1
    16     8     9   1
    17     9    19   1
    18    12    10  am
    19    10    20   2
    20    10    11   1
    21     3    21   1
    22     4    22   1
    23     5    23   1
    24     6    24   1
    25     7    25   1
    26     8    26   1
    27     9    27   1
    28     9    28   1
    29    11    29   1
    30    11    30   1
    31    11    31   1
    32    12    32   1
    33    15    33   1
    34    17    34   1
    35    18    35   1
    36    19    36   1
    37    19    37   1
    38    19    38   1
@<TRIPOS>SUBSTRUCTURE
     1  MOL      1

