@<TRIPOS>MOLECULE
1f8d_ligand_009
    38    38
SMALL
GAST_HUCK
****
This file was generated by PARSER (from files_GN.cpp)

@<TRIPOS>ATOM
      1 C1         23.8132   19.3554   64.1091 C.2         1 MOL       0.0809
      2 C2         24.9120   18.7161   63.5641 C.2         1 MOL       0.1088
      3 C3         26.0901   19.3502   63.3869 C.2         1 MOL      -0.0276
      4 C4         27.3009   18.6618   62.9679 C.3         1 MOL       0.1003
      5 C5         27.0734   17.1930   62.4831 C.3         1 MOL       0.1064
      6 C6         25.8840   16.5417   63.2584 C.3         1 MOL       0.1322
      7 C7         25.4437   15.1073   62.8089 C.3         1 MOL       0.1183
      8 C8         25.1919   14.8924   61.2744 C.3         1 MOL       0.1232
      9 C9         26.3784   14.2500   60.4991 C.3         1 MOL      -0.0062
     10 C10        28.9884   16.0171   63.5420 C.2         1 MOL       0.1734
     11 C11        30.1784   15.2434   63.3059 C.3         1 MOL       0.0257
     12 N5         28.2844   16.4210   62.4939 N.am        1 MOL      -0.2770
     13 O1A        23.6878   20.7044   64.1328 O.co2       1 MOL      -0.5623
     14 O1B        22.8524   18.6518   64.7527 O.co2       1 MOL      -0.5623
     15 O4         27.9325   19.4106   61.9272 O.3         1 MOL      -0.3807
     16 O6         24.7407   17.4278   63.1780 O.3         1 MOL      -0.3189
     17 O7         26.3552   14.1347   63.3385 O.3         1 MOL      -0.3860
     18 O8         24.0193   14.0944   61.0915 O.3         1 MOL      -0.3838
     19 N9         26.0023   13.7813   59.1651 N.4         1 MOL       0.2204
     20 O10        28.6656   16.2765   64.6947 O.2         1 MOL      -0.3974
     21 H1         26.1891   20.2995   63.6708 H           1 MOL       0.0480
     22 H2         27.9756   18.6677   63.8277 H           1 MOL       0.0740
     23 H3         26.7737   17.2647   61.4347 H           1 MOL       0.0632
     24 H4         26.1475   16.4706   64.3188 H           1 MOL       0.0697
     25 H5         24.4981   14.9192   63.3297 H           1 MOL       0.0652
     26 H6         24.9539   15.8535   60.8115 H           1 MOL       0.0674
     27 H7         26.7615   13.3740   61.0245 H           1 MOL       0.0840
     28 H8         27.1921   14.9670   60.3849 H           1 MOL       0.0840
     29 H9         30.6548   14.9517   64.2445 H           1 MOL       0.0467
     30 H10        30.8886   15.8327   62.7231 H           1 MOL       0.0467
     31 H11        29.9258   14.3377   62.7519 H           1 MOL       0.0467
     32 H12        28.6284   16.1616   61.6245 H           1 MOL       0.1858
     33 H13        28.1305   20.2891   62.3166 H           1 MOL       0.2127
     34 H14        25.9139   13.2704   63.1966 H           1 MOL       0.2100
     35 H15        24.3317   13.1808   60.9293 H           1 MOL       0.2101
     36 H16        26.8404   13.4553   58.6754 H           1 MOL       0.1995
     37 H17        25.5671   14.5379   58.6365 H           1 MOL       0.1995
     38 H18        25.3392   13.0056   59.2546 H           1 MOL       0.1995
@<TRIPOS>BOND
     1     1    14  ar
     2     1    13  ar
     3     1     2   1
     4     2    16   1
     5     2     3   2
     6     3     4   1
     7     4    15   1
     8     4     5   1
     9     5    12   1
    10     5     6   1
    11     6    16   1
    12     6     7   1
    13     7    17   1
    14     7     8   1
    15     8    18   1
    16     8     9   1
    17     9    19   1
    18    12    10  am
    19    10    20   2
    20    10    11   1
    21     3    21   1
    22     4    22   1
    23     5    23   1
    24     6    24   1
    25     7    25   1
    26     8    26   1
    27     9    27   1
    28     9    28   1
    29    11    29   1
    30    11    30   1
    31    11    31   1
    32    12    32   1
    33    15    33   1
    34    17    34   1
    35    18    35   1
    36    19    36   1
    37    19    37   1
    38    19    38   1
@<TRIPOS>SUBSTRUCTURE
     1  MOL      1

