@<TRIPOS>MOLECULE
1f8d_ligand_018
    38    38
SMALL
GAST_HUCK
****
This file was generated by PARSER (from files_GN.cpp)

@<TRIPOS>ATOM
      1 C1         22.5223   18.9914   67.6766 C.2         1 MOL       0.0809
      2 C2         23.2985   19.1617   66.5330 C.2         1 MOL       0.1088
      3 C3         24.3221   20.0405   66.4767 C.2         1 MOL      -0.0276
      4 C4         25.1219   20.0802   65.2899 C.3         1 MOL       0.1003
      5 C5         25.4603   18.6457   64.7597 C.3         1 MOL       0.1064
      6 C6         24.2426   17.6643   65.0027 C.3         1 MOL       0.1322
      7 C7         23.8846   16.7337   63.7890 C.3         1 MOL       0.1183
      8 C8         23.4272   17.4669   62.4825 C.3         1 MOL       0.1232
      9 C9         23.2933   16.5629   61.2137 C.3         1 MOL      -0.0062
     10 C10        27.0787   17.8981   66.5354 C.2         1 MOL       0.1734
     11 C11        28.4331   17.4718   66.7915 C.3         1 MOL       0.0257
     12 N5         26.7112   18.1345   65.2818 N.am        1 MOL      -0.2770
     13 O1A        21.2554   19.5099   67.7395 O.co2       1 MOL      -0.5623
     14 O1B        23.0532   18.4665   68.8245 O.co2       1 MOL      -0.5623
     15 O4         24.3934   20.8054   64.2869 O.3         1 MOL      -0.3807
     16 O6         23.0440   18.3457   65.4855 O.3         1 MOL      -0.3189
     17 O7         24.9762   15.8501   63.5277 O.3         1 MOL      -0.3860
     18 O8         22.1824   18.1460   62.7355 O.3         1 MOL      -0.3838
     19 N9         24.5035   16.6172   60.3726 N.4         1 MOL       0.2204
     20 O10        26.2983   18.0347   67.4641 O.2         1 MOL      -0.3974
     21 H1         24.5466   20.5924   67.2676 H           1 MOL       0.0480
     22 H2         26.0228   20.6394   65.4778 H           1 MOL       0.0740
     23 H3         25.6241   18.7287   63.6839 H           1 MOL       0.0632
     24 H4         24.5160   16.9664   65.8106 H           1 MOL       0.0697
     25 H5         23.0565   16.0955   64.1033 H           1 MOL       0.0652
     26 H6         24.1659   18.2600   62.2597 H           1 MOL       0.0674
     27 H7         22.4629   16.9169   60.5951 H           1 MOL       0.0840
     28 H8         23.0908   15.5268   61.4942 H           1 MOL       0.0840
     29 H9         28.6344   17.4299   67.8649 H           1 MOL       0.0467
     30 H10        29.1290   18.1833   66.3451 H           1 MOL       0.0467
     31 H11        28.6015   16.4888   66.3660 H           1 MOL       0.0467
     32 H12        27.3992   17.9524   64.6021 H           1 MOL       0.1858
     33 H13        23.9863   20.1420   63.6679 H           1 MOL       0.2127
     34 H14        25.7261   16.4161   63.2133 H           1 MOL       0.2100
     35 H15        21.5442   17.4499   62.9728 H           1 MOL       0.2101
     36 H16        24.3823   16.0392   59.5347 H           1 MOL       0.1995
     37 H17        25.3079   16.2776   60.9016 H           1 MOL       0.1995
     38 H18        24.6586   17.5818   60.0837 H           1 MOL       0.1995
@<TRIPOS>BOND
     1     1    14  ar
     2     1    13  ar
     3     1     2   1
     4     2    16   1
     5     2     3   2
     6     3     4   1
     7     4    15   1
     8     4     5   1
     9     5    12   1
    10     5     6   1
    11     6    16   1
    12     6     7   1
    13     7    17   1
    14     7     8   1
    15     8    18   1
    16     8     9   1
    17     9    19   1
    18    12    10  am
    19    10    20   2
    20    10    11   1
    21     3    21   1
    22     4    22   1
    23     5    23   1
    24     6    24   1
    25     7    25   1
    26     8    26   1
    27     9    27   1
    28     9    28   1
    29    11    29   1
    30    11    30   1
    31    11    31   1
    32    12    32   1
    33    15    33   1
    34    17    34   1
    35    18    35   1
    36    19    36   1
    37    19    37   1
    38    19    38   1
@<TRIPOS>SUBSTRUCTURE
     1  MOL      1

