@<TRIPOS>MOLECULE
1f8d_ligand_039
    38    38
SMALL
GAST_HUCK
****
This file was generated by PARSER (from files_GN.cpp)

@<TRIPOS>ATOM
      1 C1         27.5274   20.2434   64.2508 C.2         1 MOL       0.0809
      2 C2         26.5764   19.2429   64.2830 C.2         1 MOL       0.1088
      3 C3         25.2537   19.5101   64.3627 C.2         1 MOL      -0.0276
      4 C4         24.3051   18.4386   64.2994 C.3         1 MOL       0.1003
      5 C5         24.7517   17.2563   63.3819 C.3         1 MOL       0.1064
      6 C6         26.3320   17.1238   63.2686 C.3         1 MOL       0.1322
      7 C7         26.8648   15.6418   63.3876 C.3         1 MOL       0.1183
      8 C8         27.4753   15.0674   62.0766 C.3         1 MOL       0.1232
      9 C9         28.8362   15.6764   61.6211 C.3         1 MOL      -0.0062
     10 C10        23.4941   16.4846   61.3975 C.2         1 MOL       0.1734
     11 C11        23.0905   16.7830   60.0373 C.3         1 MOL       0.0257
     12 N5         24.2029   17.3918   62.0495 N.am        1 MOL      -0.2770
     13 O1A        27.6301   21.1172   65.2945 O.co2       1 MOL      -0.5623
     14 O1B        28.5246   20.2119   63.3298 O.co2       1 MOL      -0.5623
     15 O4         24.0766   17.9784   65.6308 O.3         1 MOL      -0.3807
     16 O6         27.0148   17.9604   64.2370 O.3         1 MOL      -0.3189
     17 O7         27.7648   15.4896   64.4901 O.3         1 MOL      -0.3860
     18 O8         27.6160   13.6592   62.2194 O.3         1 MOL      -0.3838
     19 N9         29.9246   15.4788   62.5853 N.4         1 MOL       0.2204
     20 O10        23.2159   15.3929   61.8701 O.2         1 MOL      -0.3974
     21 H1         24.9450   20.4496   64.3619 H           1 MOL       0.0480
     22 H2         23.3602   18.8399   63.9476 H           1 MOL       0.0740
     23 H3         24.3472   16.3566   63.8433 H           1 MOL       0.0632
     24 H4         26.6478   17.5225   62.2921 H           1 MOL       0.0697
     25 H5         26.0325   14.9874   63.6256 H           1 MOL       0.0652
     26 H6         26.7622   15.2385   61.2755 H           1 MOL       0.0674
     27 H7         28.7378   16.7519   61.4439 H           1 MOL       0.0840
     28 H8         29.1385   15.2169   60.6742 H           1 MOL       0.0840
     29 H9         22.5408   15.9504   59.5923 H           1 MOL       0.0467
     30 H10        23.9769   16.9789   59.4306 H           1 MOL       0.0467
     31 H11        22.4489   17.6657   60.0281 H           1 MOL       0.0467
     32 H12        24.4115   18.2069   61.5662 H           1 MOL       0.1858
     33 H13        24.7282   17.2568   65.7995 H           1 MOL       0.2127
     34 H14        27.1888   15.4865   65.2949 H           1 MOL       0.2100
     35 H15        27.5652   13.2772   61.3188 H           1 MOL       0.2101
     36 H16        30.8179   15.7665   62.1667 H           1 MOL       0.1995
     37 H17        29.9824   14.4938   62.8529 H           1 MOL       0.1995
     38 H18        29.7486   16.0482   63.4162 H           1 MOL       0.1995
@<TRIPOS>BOND
     1     1    14  ar
     2     1    13  ar
     3     1     2   1
     4     2    16   1
     5     2     3   2
     6     3     4   1
     7     4    15   1
     8     4     5   1
     9     5    12   1
    10     5     6   1
    11     6    16   1
    12     6     7   1
    13     7    17   1
    14     7     8   1
    15     8    18   1
    16     8     9   1
    17     9    19   1
    18    12    10  am
    19    10    20   2
    20    10    11   1
    21     3    21   1
    22     4    22   1
    23     5    23   1
    24     6    24   1
    25     7    25   1
    26     8    26   1
    27     9    27   1
    28     9    28   1
    29    11    29   1
    30    11    30   1
    31    11    31   1
    32    12    32   1
    33    15    33   1
    34    17    34   1
    35    18    35   1
    36    19    36   1
    37    19    37   1
    38    19    38   1
@<TRIPOS>SUBSTRUCTURE
     1  MOL      1

