@<TRIPOS>MOLECULE
1f8d_ligand_003
    38    38
SMALL
GAST_HUCK
****
This file was generated by PARSER (from files_GN.cpp)

@<TRIPOS>ATOM
      1 C1         23.6040   19.6730   64.4348 C.2         1 MOL       0.0809
      2 C2         23.9867   18.5219   63.7598 C.2         1 MOL       0.1088
      3 C3         23.1664   17.4516   63.6796 C.2         1 MOL      -0.0276
      4 C4         23.5477   16.2225   63.0147 C.3         1 MOL       0.1003
      5 C5         25.0822   16.1015   62.7815 C.3         1 MOL       0.1064
      6 C6         25.6337   17.4763   62.2811 C.3         1 MOL       0.1322
      7 C7         27.1946   17.4883   62.0612 C.3         1 MOL       0.1183
      8 C8         27.7050   17.6045   60.5866 C.3         1 MOL       0.1232
      9 C9         27.0223   16.6322   59.5768 C.3         1 MOL      -0.0062
     10 C10        26.2951   14.1439   61.8807 C.2         1 MOL       0.1734
     11 C11        26.3391   13.1056   60.8848 C.3         1 MOL       0.0257
     12 N5         25.3142   15.0419   61.8436 N.am        1 MOL      -0.2770
     13 O1A        24.2720   20.8371   64.2494 O.co2       1 MOL      -0.5623
     14 O1B        22.6985   19.6429   65.4463 O.co2       1 MOL      -0.5623
     15 O4         23.0830   15.1122   63.7812 O.3         1 MOL      -0.3807
     16 O6         25.2469   18.4918   63.2478 O.3         1 MOL      -0.3189
     17 O7         27.8142   18.5262   62.8221 O.3         1 MOL      -0.3860
     18 O8         27.6644   18.9596   60.1390 O.3         1 MOL      -0.3838
     19 N9         26.0718   17.2669   58.6489 N.4         1 MOL       0.2204
     20 O10        27.1720   14.1694   62.7359 O.2         1 MOL      -0.3974
     21 H1         22.2282   17.5173   63.9988 H           1 MOL       0.0480
     22 H2         23.0166   16.2054   62.0545 H           1 MOL       0.0740
     23 H3         25.5510   15.8969   63.7491 H           1 MOL       0.0632
     24 H4         25.1339   17.7197   61.3443 H           1 MOL       0.0697
     25 H5         27.6214   16.5622   62.4587 H           1 MOL       0.0652
     26 H6         28.7670   17.3420   60.6104 H           1 MOL       0.0674
     27 H7         26.4913   15.8423   60.1146 H           1 MOL       0.0840
     28 H8         27.7844   16.1494   58.9635 H           1 MOL       0.0840
     29 H9         27.2320   12.4803   60.9889 H           1 MOL       0.0467
     30 H10        26.3493   13.5321   59.8789 H           1 MOL       0.0467
     31 H11        25.4630   12.4652   60.9915 H           1 MOL       0.0467
     32 H12        24.6903   14.9626   61.1065 H           1 MOL       0.1858
     33 H13        23.1893   14.3258   63.2075 H           1 MOL       0.2127
     34 H14        27.3848   19.3565   62.5262 H           1 MOL       0.2100
     35 H15        26.7522   19.2573   60.3109 H           1 MOL       0.2101
     36 H16        25.4749   16.5484   58.2341 H           1 MOL       0.1995
     37 H17        26.5933   17.7459   57.9066 H           1 MOL       0.1995
     38 H18        25.4830   17.9419   59.1408 H           1 MOL       0.1995
@<TRIPOS>BOND
     1     1    14  ar
     2     1    13  ar
     3     1     2   1
     4     2    16   1
     5     2     3   2
     6     3     4   1
     7     4    15   1
     8     4     5   1
     9     5    12   1
    10     5     6   1
    11     6    16   1
    12     6     7   1
    13     7    17   1
    14     7     8   1
    15     8    18   1
    16     8     9   1
    17     9    19   1
    18    12    10  am
    19    10    20   2
    20    10    11   1
    21     3    21   1
    22     4    22   1
    23     5    23   1
    24     6    24   1
    25     7    25   1
    26     8    26   1
    27     9    27   1
    28     9    28   1
    29    11    29   1
    30    11    30   1
    31    11    31   1
    32    12    32   1
    33    15    33   1
    34    17    34   1
    35    18    35   1
    36    19    36   1
    37    19    37   1
    38    19    38   1
@<TRIPOS>SUBSTRUCTURE
     1  MOL      1

