@<TRIPOS>MOLECULE
1f8d_ligand_026
    38    38
SMALL
GAST_HUCK
****
This file was generated by PARSER (from files_GN.cpp)

@<TRIPOS>ATOM
      1 C1         24.1479   19.9197   65.1529 C.2         1 MOL       0.0809
      2 C2         25.3506   19.2441   65.2445 C.2         1 MOL       0.1088
      3 C3         25.7841   18.7036   66.4013 C.2         1 MOL      -0.0276
      4 C4         27.0841   18.0628   66.5203 C.3         1 MOL       0.1003
      5 C5         28.0063   18.1908   65.2598 C.3         1 MOL       0.1064
      6 C6         27.1245   18.2284   63.9720 C.3         1 MOL       0.1322
      7 C7         27.8555   18.4126   62.5915 C.3         1 MOL       0.1183
      8 C8         27.8661   19.8461   61.9675 C.3         1 MOL       0.1232
      9 C9         28.6462   20.9349   62.7510 C.3         1 MOL      -0.0062
     10 C10        30.1831   17.0720   65.6153 C.2         1 MOL       0.1734
     11 C11        30.9110   15.8247   65.5678 C.3         1 MOL       0.0257
     12 N5         28.9068   17.0791   65.2494 N.am        1 MOL      -0.2770
     13 O1A        24.0801   21.0271   64.3750 O.co2       1 MOL      -0.5623
     14 O1B        22.9852   19.4304   65.6563 O.co2       1 MOL      -0.5623
     15 O4         27.7726   18.5983   67.6531 O.3         1 MOL      -0.3807
     16 O6         26.1318   19.2626   64.1366 O.3         1 MOL      -0.3189
     17 O7         29.1780   17.8768   62.6050 O.3         1 MOL      -0.3860
     18 O8         28.3892   19.7850   60.6347 O.3         1 MOL      -0.3838
     19 N9         30.1015   20.7462   62.7243 N.4         1 MOL       0.2204
     20 O10        30.7561   18.0877   66.0062 O.2         1 MOL      -0.3974
     21 H1         25.1983   18.7243   67.2115 H           1 MOL       0.0480
     22 H2         26.8869   17.0076   66.7198 H           1 MOL       0.0740
     23 H3         28.5395   19.1426   65.3205 H           1 MOL       0.0632
     24 H4         26.6021   17.2663   63.9202 H           1 MOL       0.0697
     25 H5         27.3112   17.7935   61.8714 H           1 MOL       0.0652
     26 H6         26.8330   20.1904   61.8771 H           1 MOL       0.0674
     27 H7         28.3116   20.9729   63.7872 H           1 MOL       0.0840
     28 H8         28.4440   21.9120   62.3067 H           1 MOL       0.0840
     29 H9         31.9558   15.9570   65.8633 H           1 MOL       0.0467
     30 H10        30.8816   15.4103   64.5551 H           1 MOL       0.0467
     31 H11        30.4533   15.1113   66.2561 H           1 MOL       0.0467
     32 H12        28.5278   16.2320   64.9573 H           1 MOL       0.1858
     33 H13        27.2504   18.3174   68.4353 H           1 MOL       0.2127
     34 H14        29.4775   17.8574   61.6691 H           1 MOL       0.2100
     35 H15        27.7064   19.3207   60.1051 H           1 MOL       0.2101
     36 H16        30.5588   21.5032   63.2407 H           1 MOL       0.1995
     37 H17        30.4332   20.7620   61.7533 H           1 MOL       0.1995
     38 H18        30.3543   19.8515   63.1528 H           1 MOL       0.1995
@<TRIPOS>BOND
     1     1    14  ar
     2     1    13  ar
     3     1     2   1
     4     2    16   1
     5     2     3   2
     6     3     4   1
     7     4    15   1
     8     4     5   1
     9     5    12   1
    10     5     6   1
    11     6    16   1
    12     6     7   1
    13     7    17   1
    14     7     8   1
    15     8    18   1
    16     8     9   1
    17     9    19   1
    18    12    10  am
    19    10    20   2
    20    10    11   1
    21     3    21   1
    22     4    22   1
    23     5    23   1
    24     6    24   1
    25     7    25   1
    26     8    26   1
    27     9    27   1
    28     9    28   1
    29    11    29   1
    30    11    30   1
    31    11    31   1
    32    12    32   1
    33    15    33   1
    34    17    34   1
    35    18    35   1
    36    19    36   1
    37    19    37   1
    38    19    38   1
@<TRIPOS>SUBSTRUCTURE
     1  MOL      1

