@<TRIPOS>MOLECULE
1f8d_ligand_066
    38    38
SMALL
GAST_HUCK
****
This file was generated by PARSER (from files_GN.cpp)

@<TRIPOS>ATOM
      1 C1         27.5424   14.3517   61.1462 C.2         1 MOL       0.0809
      2 C2         27.5781   15.6679   61.5720 C.2         1 MOL       0.1088
      3 C3         27.4952   16.0277   62.8726 C.2         1 MOL      -0.0276
      4 C4         27.5898   17.4118   63.2971 C.3         1 MOL       0.1003
      5 C5         27.4949   18.4541   62.1399 C.3         1 MOL       0.1064
      6 C6         28.1884   17.8922   60.8527 C.3         1 MOL       0.1322
      7 C7         28.0934   18.8214   59.5952 C.3         1 MOL       0.1183
      8 C8         28.0354   18.1074   58.2000 C.3         1 MOL       0.1232
      9 C9         26.9999   16.9573   57.9962 C.3         1 MOL      -0.0062
     10 C10        29.1581   20.1252   62.8941 C.2         1 MOL       0.1734
     11 C11        29.3352   21.4741   63.3517 C.3         1 MOL       0.0257
     12 N5         27.9371   19.7563   62.5349 N.am        1 MOL      -0.2770
     13 O1A        27.7043   14.0336   59.8363 O.co2       1 MOL      -0.5623
     14 O1B        27.2970   13.3246   61.9931 O.co2       1 MOL      -0.5623
     15 O4         26.5785   17.6813   64.2681 O.3         1 MOL      -0.3807
     16 O6         27.6115   16.5962   60.6022 O.3         1 MOL      -0.3189
     17 O7         27.0166   19.7533   59.6710 O.3         1 MOL      -0.3860
     18 O8         27.8163   19.0850   57.1793 O.3         1 MOL      -0.3838
     19 N9         25.6148   17.4190   57.8974 N.4         1 MOL       0.2204
     20 O10        30.1157   19.3624   62.8655 O.2         1 MOL      -0.3974
     21 H1         27.4777   15.3291   63.5774 H           1 MOL       0.0480
     22 H2         28.5520   17.5148   63.7999 H           1 MOL       0.0740
     23 H3         26.4321   18.5540   61.8930 H           1 MOL       0.0632
     24 H4         29.2551   17.7298   61.0570 H           1 MOL       0.0697
     25 H5         29.0015   19.4385   59.5930 H           1 MOL       0.0652
     26 H6         29.0237   17.6926   58.0254 H           1 MOL       0.0674
     27 H7         27.0363   16.2332   58.8127 H           1 MOL       0.0840
     28 H8         27.2307   16.4080   57.0660 H           1 MOL       0.0840
     29 H9         30.3835   21.6718   63.6001 H           1 MOL       0.0467
     30 H10        28.7262   21.6371   64.2463 H           1 MOL       0.0467
     31 H11        29.0177   22.1740   62.5717 H           1 MOL       0.0467
     32 H12        27.2556   20.4429   62.5728 H           1 MOL       0.1858
     33 H13        25.7233   17.5494   63.7997 H           1 MOL       0.2127
     34 H14        27.2769   20.3985   60.3642 H           1 MOL       0.2100
     35 H15        28.0167   18.6134   56.3398 H           1 MOL       0.2101
     36 H16        25.0028   16.6332   58.0976 H           1 MOL       0.1995
     37 H17        25.4473   17.7630   56.9493 H           1 MOL       0.1995
     38 H18        25.4174   18.1526   58.5823 H           1 MOL       0.1995
@<TRIPOS>BOND
     1     1    14  ar
     2     1    13  ar
     3     1     2   1
     4     2    16   1
     5     2     3   2
     6     3     4   1
     7     4    15   1
     8     4     5   1
     9     5    12   1
    10     5     6   1
    11     6    16   1
    12     6     7   1
    13     7    17   1
    14     7     8   1
    15     8    18   1
    16     8     9   1
    17     9    19   1
    18    12    10  am
    19    10    20   2
    20    10    11   1
    21     3    21   1
    22     4    22   1
    23     5    23   1
    24     6    24   1
    25     7    25   1
    26     8    26   1
    27     9    27   1
    28     9    28   1
    29    11    29   1
    30    11    30   1
    31    11    31   1
    32    12    32   1
    33    15    33   1
    34    17    34   1
    35    18    35   1
    36    19    36   1
    37    19    37   1
    38    19    38   1
@<TRIPOS>SUBSTRUCTURE
     1  MOL      1

