@<TRIPOS>MOLECULE
1f8d_ligand_025
    38    38
SMALL
GAST_HUCK
****
This file was generated by PARSER (from files_GN.cpp)

@<TRIPOS>ATOM
      1 C1         25.4062   13.8377   62.8899 C.2         1 MOL       0.0809
      2 C2         25.2440   15.2086   62.9310 C.2         1 MOL       0.1088
      3 C3         24.0432   15.8205   62.9993 C.2         1 MOL      -0.0276
      4 C4         23.8897   17.2619   62.8141 C.3         1 MOL       0.1003
      5 C5         25.2447   18.0526   62.8043 C.3         1 MOL       0.1064
      6 C6         26.3866   17.1721   62.1893 C.3         1 MOL       0.1322
      7 C7         26.3018   16.9508   60.6374 C.3         1 MOL       0.1183
      8 C8         27.3266   17.7875   59.8029 C.3         1 MOL       0.1232
      9 C9         27.1037   17.7168   58.2628 C.3         1 MOL      -0.0062
     10 C10        25.6335   19.5826   64.7235 C.2         1 MOL       0.1734
     11 C11        26.0500   19.6979   66.1018 C.3         1 MOL       0.0257
     12 N5         25.6044   18.3812   64.1638 N.am        1 MOL      -0.2770
     13 O1A        26.6336   13.2903   63.0368 O.co2       1 MOL      -0.5623
     14 O1B        24.3821   12.9873   62.6447 O.co2       1 MOL      -0.5623
     15 O4         23.1587   17.4194   61.5973 O.3         1 MOL      -0.3807
     16 O6         26.3877   15.9174   62.9089 O.3         1 MOL      -0.3189
     17 O7         26.4644   15.5693   60.3072 O.3         1 MOL      -0.3860
     18 O8         27.3351   19.1540   60.2238 O.3         1 MOL      -0.3838
     19 N9         25.7071   17.4705   57.8616 N.4         1 MOL       0.2204
     20 O10        25.2865   20.5897   64.1200 O.2         1 MOL      -0.3974
     21 H1         23.2182   15.2737   63.0585 H           1 MOL       0.0480
     22 H2         23.2505   17.6526   63.6129 H           1 MOL       0.0740
     23 H3         25.1289   18.9615   62.2043 H           1 MOL       0.0632
     24 H4         27.3514   17.6419   62.4115 H           1 MOL       0.0697
     25 H5         25.3075   17.2256   60.2939 H           1 MOL       0.0652
     26 H6         28.3337   17.4106   60.0034 H           1 MOL       0.0674
     27 H7         27.7071   16.9087   57.8414 H           1 MOL       0.0840
     28 H8         27.4344   18.6560   57.8071 H           1 MOL       0.0840
     29 H9         25.9986   20.7308   66.4580 H           1 MOL       0.0467
     30 H10        27.0818   19.3495   66.2057 H           1 MOL       0.0467
     31 H11        25.4059   19.0834   66.7368 H           1 MOL       0.0467
     32 H12        25.8281   17.6361   64.7469 H           1 MOL       0.1858
     33 H13        23.6463   18.0807   61.0649 H           1 MOL       0.2127
     34 H14        27.4006   15.3553   60.5224 H           1 MOL       0.2100
     35 H15        26.6528   19.6007   59.6794 H           1 MOL       0.2101
     36 H16        25.5998   17.6400   56.8535 H           1 MOL       0.1995
     37 H17        25.0817   18.0849   58.3887 H           1 MOL       0.1995
     38 H18        25.4489   16.4985   58.0656 H           1 MOL       0.1995
@<TRIPOS>BOND
     1     1    14  ar
     2     1    13  ar
     3     1     2   1
     4     2    16   1
     5     2     3   2
     6     3     4   1
     7     4    15   1
     8     4     5   1
     9     5    12   1
    10     5     6   1
    11     6    16   1
    12     6     7   1
    13     7    17   1
    14     7     8   1
    15     8    18   1
    16     8     9   1
    17     9    19   1
    18    12    10  am
    19    10    20   2
    20    10    11   1
    21     3    21   1
    22     4    22   1
    23     5    23   1
    24     6    24   1
    25     7    25   1
    26     8    26   1
    27     9    27   1
    28     9    28   1
    29    11    29   1
    30    11    30   1
    31    11    31   1
    32    12    32   1
    33    15    33   1
    34    17    34   1
    35    18    35   1
    36    19    36   1
    37    19    37   1
    38    19    38   1
@<TRIPOS>SUBSTRUCTURE
     1  MOL      1

