@<TRIPOS>MOLECULE
1gpk_ligand_035
    37    39
SMALL
GAST_HUCK
****
This file was generated by PARSER (from files_GN.cpp)

@<TRIPOS>ATOM
      1 C1          0.8546   62.6263   73.3703 C.2         1 HUP       0.2329
      2 O1          0.0672   63.5395   73.5778 O.2         1 HUP      -0.3876
      3 N1          0.4376   61.5375   72.7224 N.am        1 HUP      -0.1804
      4 C2          2.1552   62.7162   73.7601 C.2         1 HUP       0.0044
      5 C3          2.9915   61.6932   73.4954 C.2         1 HUP      -0.0667
      6 C4          2.5585   60.5264   72.8865 C.2         1 HUP      -0.0119
      7 C5          1.2648   60.5034   72.4498 C.2         1 HUP       0.1279
      8 C6          0.7204   59.3793   71.6942 C.3         1 HUP       0.0575
      9 C7          1.8014   58.3625   71.1947 C.3         1 HUP       0.0028
     10 C8          2.5055   58.8747   70.0108 C.2         1 HUP      -0.0963
     11 C9          2.1371   55.7519   72.7078 C.3         1 HUP      -0.0165
     12 C10         2.8340   56.9882   73.0064 C.2         1 HUP      -0.0578
     13 C11         2.7306   58.1496   72.3201 C.2         1 HUP      -0.0700
     14 C12         3.4935   59.3889   72.6289 C.3         1 HUP      -0.0531
     15 N2          4.4213   59.2237   73.7749 N.4         1 HUP       0.0987
     16 C13         4.3697   59.6972   71.3581 C.3         1 HUP      -0.0479
     17 C14         3.6779   59.5433   70.0711 C.2         1 HUP      -0.0960
     18 C15         4.2834   60.0445   68.8454 C.3         1 HUP      -0.0414
     19 H1         -0.4845   61.4936   72.4254 H           1 HUP       0.2789
     20 H2          2.4903   63.5370   74.2144 H           1 HUP       0.0519
     21 H3          3.9468   61.8001   73.7360 H           1 HUP       0.0683
     22 H4          0.1557   59.7645   70.8407 H           1 HUP       0.0669
     23 H5          0.0088   58.8537   72.3389 H           1 HUP       0.0669
     24 H6          1.2904   57.4446   70.8927 H           1 HUP       0.0532
     25 H7          2.0558   58.7738   69.1291 H           1 HUP       0.0261
     26 H8          1.0567   55.8972   72.7729 H           1 HUP       0.0514
     27 H9          2.4188   54.9700   73.4161 H           1 HUP       0.0514
     28 H10         2.3986   55.4083   71.7042 H           1 HUP       0.0514
     29 H11         3.4438   56.9511   73.7861 H           1 HUP       0.1006
     30 H12         5.0117   60.0517   73.8656 H           1 HUP       0.1917
     31 H13         5.0175   58.4096   73.6168 H           1 HUP       0.1917
     32 H14         3.8869   59.0916   74.6357 H           1 HUP       0.1917
     33 H15         5.2282   59.0193   71.3426 H           1 HUP       0.0233
     34 H16         4.7689   60.7132   71.4354 H           1 HUP       0.0233
     35 H17         4.4666   59.2204   68.1524 H           1 HUP       0.0377
     36 H18         5.2340   60.5456   69.0333 H           1 HUP       0.0377
     37 H19         3.6138   60.7638   68.3652 H           1 HUP       0.0377
@<TRIPOS>BOND
     1     4     1   1
     2     1     3  am
     3     1     2   2
     4     3     7   1
     5     7     8   1
     6     7     6   2
     7     6    14   1
     8     6     5   1
     9     5     4   2
    10    14    16   1
    11    14    15   1
    12    14    13   1
    13    13    12   2
    14    13     9   1
    15     9    10   1
    16     9     8   1
    17    10    17   2
    18    17    18   1
    19    16    17   1
    20    12    11   1
    21     3    19   1
    22     4    20   1
    23     5    21   1
    24     8    22   1
    25     8    23   1
    26     9    24   1
    27    10    25   1
    28    11    26   1
    29    11    27   1
    30    11    28   1
    31    12    29   1
    32    15    30   1
    33    15    31   1
    34    15    32   1
    35    16    33   1
    36    16    34   1
    37    18    35   1
    38    18    36   1
    39    18    37   1
@<TRIPOS>SUBSTRUCTURE
     1  HUP      1

