@<TRIPOS>MOLECULE
1gpk_ligand_012
    37    39
SMALL
GAST_HUCK
****
This file was generated by PARSER (from files_GN.cpp)

@<TRIPOS>ATOM
      1 C1         -0.4744   56.6978   72.8814 C.2         1 HUP       0.2329
      2 O1         -1.4154   56.1780   73.4617 O.2         1 HUP      -0.3876
      3 N1         -0.5260   57.9965   72.5888 N.am        1 HUP      -0.1804
      4 C2          0.6298   55.9781   72.5373 C.2         1 HUP       0.0044
      5 C3          1.6376   56.5922   71.8863 C.2         1 HUP      -0.0667
      6 C4          1.5765   57.9332   71.5282 C.2         1 HUP      -0.0119
      7 C5          0.4835   58.6339   71.9566 C.2         1 HUP       0.1279
      8 C6          0.3371   60.0702   71.7297 C.3         1 HUP       0.0575
      9 C7          1.6479   60.7729   71.2552 C.3         1 HUP       0.0028
     10 C8          2.5647   60.9840   72.3832 C.2         1 HUP      -0.0963
     11 C9          1.9805   61.4992   68.3260 C.3         1 HUP      -0.0165
     12 C10         2.3935   60.2474   68.9260 C.2         1 HUP      -0.0578
     13 C11         2.2601   59.9056   70.2283 C.2         1 HUP      -0.0700
     14 C12         2.7058   58.6138   70.8195 C.3         1 HUP      -0.0531
     15 N2          3.3145   57.6974   69.8224 N.4         1 HUP       0.0987
     16 C13         3.8431   58.9694   71.8450 C.3         1 HUP      -0.0479
     17 C14         3.5727   60.1377   72.6933 C.2         1 HUP      -0.0960
     18 C15         4.4524   60.4323   73.8133 C.3         1 HUP      -0.0414
     19 H1         -1.3141   58.5006   72.8445 H           1 HUP       0.2789
     20 H2          0.7019   55.0154   72.7805 H           1 HUP       0.0519
     21 H3          2.4499   56.0577   71.6814 H           1 HUP       0.0683
     22 H4         -0.0206   60.5511   72.6460 H           1 HUP       0.0669
     23 H5         -0.4372   60.2111   70.9701 H           1 HUP       0.0669
     24 H6          1.3809   61.7590   70.8723 H           1 HUP       0.0532
     25 H7          2.3962   61.7689   72.9729 H           1 HUP       0.0261
     26 H8          0.9059   61.6432   68.4479 H           1 HUP       0.0514
     27 H9          2.2042   61.5072   67.2579 H           1 HUP       0.0514
     28 H10         2.5135   62.3312   68.7881 H           1 HUP       0.0514
     29 H11         2.8128   59.5957   68.3058 H           1 HUP       0.1006
     30 H12         3.7254   56.8912   70.2958 H           1 HUP       0.1917
     31 H13         4.0538   58.1890   69.3154 H           1 HUP       0.1917
     32 H14         2.6088   57.3774   69.1580 H           1 HUP       0.1917
     33 H15         4.7673   59.1843   71.2981 H           1 HUP       0.0233
     34 H16         4.0412   58.0970   72.4760 H           1 HUP       0.0233
     35 H17         4.9302   61.4019   73.6633 H           1 HUP       0.0377
     36 H18         5.2406   59.6840   73.9241 H           1 HUP       0.0377
     37 H19         3.8769   60.4576   74.7406 H           1 HUP       0.0377
@<TRIPOS>BOND
     1     4     1   1
     2     1     3  am
     3     1     2   2
     4     3     7   1
     5     7     8   1
     6     7     6   2
     7     6    14   1
     8     6     5   1
     9     5     4   2
    10    14    16   1
    11    14    15   1
    12    14    13   1
    13    13    12   2
    14    13     9   1
    15     9    10   1
    16     9     8   1
    17    10    17   2
    18    17    18   1
    19    16    17   1
    20    12    11   1
    21     3    19   1
    22     4    20   1
    23     5    21   1
    24     8    22   1
    25     8    23   1
    26     9    24   1
    27    10    25   1
    28    11    26   1
    29    11    27   1
    30    11    28   1
    31    12    29   1
    32    15    30   1
    33    15    31   1
    34    15    32   1
    35    16    33   1
    36    16    34   1
    37    18    35   1
    38    18    36   1
    39    18    37   1
@<TRIPOS>SUBSTRUCTURE
     1  HUP      1

