@<TRIPOS>MOLECULE
1gpk_ligand_043
    37    39
SMALL
GAST_HUCK
****
This file was generated by PARSER (from files_GN.cpp)

@<TRIPOS>ATOM
      1 C1         -2.4537   69.1388   62.6638 C.2         1 HUP       0.2329
      2 O1         -3.1762   69.6588   61.8259 O.2         1 HUP      -0.3876
      3 N1         -1.1389   69.0741   62.4534 N.am        1 HUP      -0.1804
      4 C2         -2.9671   68.6527   63.8297 C.2         1 HUP       0.0044
      5 C3         -2.1417   68.0505   64.7101 C.2         1 HUP      -0.0667
      6 C4         -0.7862   67.8940   64.4573 C.2         1 HUP      -0.0119
      7 C5         -0.2911   68.5147   63.3468 C.2         1 HUP       0.1279
      8 C6          1.1427   68.5693   63.0598 C.3         1 HUP       0.0575
      9 C7          2.0524   68.0212   64.2090 C.3         1 HUP       0.0028
     10 C8          2.2397   69.0102   65.2821 C.2         1 HUP      -0.0963
     11 C9          3.1511   65.1989   63.9510 C.3         1 HUP      -0.0165
     12 C10         1.8869   65.5523   64.5659 C.2         1 HUP      -0.0578
     13 C11         1.3963   66.8044   64.7227 C.2         1 HUP      -0.0700
     14 C12         0.1061   67.1385   65.3881 C.3         1 HUP      -0.0531
     15 N2         -0.6028   65.9465   65.9019 N.4         1 HUP       0.0987
     16 C13         0.4714   68.0142   66.6416 C.3         1 HUP      -0.0479
     17 C14         1.5079   69.0292   66.4191 C.2         1 HUP      -0.0960
     18 C15         1.8032   69.9897   67.4759 C.3         1 HUP      -0.0414
     19 H1         -0.7783   69.4485   61.6334 H           1 HUP       0.2789
     20 H2         -3.9299   68.7740   64.0493 H           1 HUP       0.0519
     21 H3         -2.5274   67.7420   65.5716 H           1 HUP       0.0683
     22 H4          1.4249   69.6017   62.8329 H           1 HUP       0.0669
     23 H5          1.3216   67.9765   62.1575 H           1 HUP       0.0669
     24 H6          3.0408   67.8220   63.7867 H           1 HUP       0.0532
     25 H7          2.9453   69.7000   65.1499 H           1 HUP       0.0261
     26 H8          3.1769   65.5338   62.9128 H           1 HUP       0.0514
     27 H9          3.2934   64.1154   63.9619 H           1 HUP       0.0514
     28 H10         3.9760   65.6548   64.5018 H           1 HUP       0.0514
     29 H11         1.3481   64.7890   64.8963 H           1 HUP       0.1006
     30 H12        -1.4387   66.2248   66.4183 H           1 HUP       0.1917
     31 H13         0.0198   65.4416   66.5317 H           1 HUP       0.1917
     32 H14        -0.8659   65.3382   65.1276 H           1 HUP       0.1917
     33 H15         0.8398   67.3627   67.4413 H           1 HUP       0.0233
     34 H16        -0.4338   68.5014   67.0174 H           1 HUP       0.0233
     35 H17         2.8535   69.9205   67.7667 H           1 HUP       0.0377
     36 H18         1.1972   69.8170   68.3687 H           1 HUP       0.0377
     37 H19         1.5982   71.0021   67.1291 H           1 HUP       0.0377
@<TRIPOS>BOND
     1     4     1   1
     2     1     3  am
     3     1     2   2
     4     3     7   1
     5     7     8   1
     6     7     6   2
     7     6    14   1
     8     6     5   1
     9     5     4   2
    10    14    16   1
    11    14    15   1
    12    14    13   1
    13    13    12   2
    14    13     9   1
    15     9    10   1
    16     9     8   1
    17    10    17   2
    18    17    18   1
    19    16    17   1
    20    12    11   1
    21     3    19   1
    22     4    20   1
    23     5    21   1
    24     8    22   1
    25     8    23   1
    26     9    24   1
    27    10    25   1
    28    11    26   1
    29    11    27   1
    30    11    28   1
    31    12    29   1
    32    15    30   1
    33    15    31   1
    34    15    32   1
    35    16    33   1
    36    16    34   1
    37    18    35   1
    38    18    36   1
    39    18    37   1
@<TRIPOS>SUBSTRUCTURE
     1  HUP      1

