@<TRIPOS>MOLECULE
1gpk_ligand_037
    37    39
SMALL
GAST_HUCK
****
This file was generated by PARSER (from files_GN.cpp)

@<TRIPOS>ATOM
      1 C1          3.8544   59.0485   69.3567 C.2         1 HUP       0.2329
      2 O1          4.2915   58.8975   68.2258 O.2         1 HUP      -0.3876
      3 N1          3.1421   58.0729   69.9160 N.am        1 HUP      -0.1804
      4 C2          4.1084   60.1854   70.0612 C.2         1 HUP       0.0044
      5 C3          3.6216   60.3027   71.3138 C.2         1 HUP      -0.0667
      6 C4          2.8442   59.3114   71.8975 C.2         1 HUP      -0.0119
      7 C5          2.6669   58.1633   71.1784 C.2         1 HUP       0.1279
      8 C6          1.9643   57.0013   71.7206 C.3         1 HUP       0.0575
      9 C7          1.6955   57.0833   73.2574 C.3         1 HUP       0.0028
     10 C8          2.9082   56.7625   74.0231 C.2         1 HUP      -0.0963
     11 C9         -1.0914   57.8237   74.2045 C.3         1 HUP      -0.0165
     12 C10        -0.0135   58.7639   73.9664 C.2         1 HUP      -0.0578
     13 C11         1.2348   58.4557   73.5440 C.2         1 HUP      -0.0700
     14 C12         2.3160   59.4490   73.2903 C.3         1 HUP      -0.0531
     15 N2          1.8789   60.8482   73.5232 N.4         1 HUP       0.0987
     16 C13         3.4555   59.1279   74.3275 C.3         1 HUP      -0.0479
     17 C14         3.7582   57.6984   74.5007 C.2         1 HUP      -0.0960
     18 C15         4.9335   57.2912   75.2605 C.3         1 HUP      -0.0414
     19 H1          2.9617   57.2697   69.3993 H           1 HUP       0.2789
     20 H2          4.6659   60.9106   69.6699 H           1 HUP       0.0519
     21 H3          3.8524   61.1235   71.8226 H           1 HUP       0.0683
     22 H4          2.5369   56.0944   71.5009 H           1 HUP       0.0669
     23 H5          1.0081   56.9145   71.1965 H           1 HUP       0.0669
     24 H6          0.9498   56.3251   73.5085 H           1 HUP       0.0532
     25 H7          3.1313   55.7993   74.1433 H           1 HUP       0.0261
     26 H8         -1.3284   57.2812   73.2871 H           1 HUP       0.0514
     27 H9         -1.9925   58.3475   74.5314 H           1 HUP       0.0514
     28 H10        -0.8090   57.1163   74.9863 H           1 HUP       0.0514
     29 H11        -0.2378   59.7163   74.1292 H           1 HUP       0.1006
     30 H12         2.6754   61.4835   73.4432 H           1 HUP       0.1917
     31 H13         1.4852   60.9342   74.4627 H           1 HUP       0.1917
     32 H14         1.1692   61.1064   72.8337 H           1 HUP       0.1917
     33 H15         3.1652   59.5122   75.3104 H           1 HUP       0.0233
     34 H16         4.3676   59.6577   74.0357 H           1 HUP       0.0233
     35 H17         4.6319   56.7022   76.1295 H           1 HUP       0.0377
     36 H18         5.5072   58.1491   75.6182 H           1 HUP       0.0377
     37 H19         5.5907   56.6847   74.6339 H           1 HUP       0.0377
@<TRIPOS>BOND
     1     4     1   1
     2     1     3  am
     3     1     2   2
     4     3     7   1
     5     7     8   1
     6     7     6   2
     7     6    14   1
     8     6     5   1
     9     5     4   2
    10    14    16   1
    11    14    15   1
    12    14    13   1
    13    13    12   2
    14    13     9   1
    15     9    10   1
    16     9     8   1
    17    10    17   2
    18    17    18   1
    19    16    17   1
    20    12    11   1
    21     3    19   1
    22     4    20   1
    23     5    21   1
    24     8    22   1
    25     8    23   1
    26     9    24   1
    27    10    25   1
    28    11    26   1
    29    11    27   1
    30    11    28   1
    31    12    29   1
    32    15    30   1
    33    15    31   1
    34    15    32   1
    35    16    33   1
    36    16    34   1
    37    18    35   1
    38    18    36   1
    39    18    37   1
@<TRIPOS>SUBSTRUCTURE
     1  HUP      1

