@<TRIPOS>MOLECULE
1gpk_ligand_048
    37    39
SMALL
GAST_HUCK
****
This file was generated by PARSER (from files_GN.cpp)

@<TRIPOS>ATOM
      1 C1         -0.4458   63.2356   70.0379 C.2         1 HUP       0.2329
      2 O1         -0.8688   63.6487   68.9680 O.2         1 HUP      -0.3876
      3 N1         -1.1886   62.3919   70.7509 N.am        1 HUP      -0.1804
      4 C2          0.7720   63.6200   70.5115 C.2         1 HUP       0.0044
      5 C3          1.1855   63.1569   71.7103 C.2         1 HUP      -0.0667
      6 C4          0.3969   62.3189   72.4886 C.2         1 HUP      -0.0119
      7 C5         -0.7845   61.9043   71.9439 C.2         1 HUP       0.1279
      8 C6         -1.6628   60.9476   72.6144 C.3         1 HUP       0.0575
      9 C7         -0.9974   60.2194   73.8248 C.3         1 HUP       0.0028
     10 C8         -0.0907   59.1577   73.3651 C.2         1 HUP      -0.0963
     11 C9         -1.7056   61.1093   76.6379 C.3         1 HUP      -0.0165
     12 C10        -0.6034   61.6269   75.8515 C.2         1 HUP      -0.0578
     13 C11        -0.2692   61.2437   74.5969 C.2         1 HUP      -0.0700
     14 C12         0.8673   61.8016   73.8121 C.3         1 HUP      -0.0531
     15 N2          1.5978   62.8717   74.5366 N.4         1 HUP       0.0987
     16 C13         1.8683   60.6076   73.5912 C.3         1 HUP      -0.0479
     17 C14         1.2437   59.3272   73.2233 C.2         1 HUP      -0.0960
     18 C15         2.0718   58.2143   72.7780 C.3         1 HUP      -0.0414
     19 H1         -2.0474   62.1100   70.3972 H           1 HUP       0.2789
     20 H2          1.3586   64.2191   69.9766 H           1 HUP       0.0519
     21 H3          2.0902   63.4239   72.0218 H           1 HUP       0.0683
     22 H4         -2.0099   60.2012   71.8942 H           1 HUP       0.0669
     23 H5         -2.5450   61.4925   72.9637 H           1 HUP       0.0669
     24 H6         -1.7891   59.7354   74.4017 H           1 HUP       0.0532
     25 H7         -0.5002   58.2887   73.0979 H           1 HUP       0.0261
     26 H8         -2.6522   61.2875   76.1243 H           1 HUP       0.0514
     27 H9         -1.7491   61.6042   77.6110 H           1 HUP       0.0514
     28 H10        -1.5782   60.0387   76.8084 H           1 HUP       0.0514
     29 H11        -0.0595   62.3285   76.2939 H           1 HUP       0.1006
     30 H12         2.4271   63.1491   74.0088 H           1 HUP       0.1917
     31 H13         1.8962   62.5289   75.4522 H           1 HUP       0.1917
     32 H14         0.9881   63.6834   74.6591 H           1 HUP       0.1917
     33 H15         2.4301   60.4341   74.5143 H           1 HUP       0.0233
     34 H16         2.5959   60.8865   72.8231 H           1 HUP       0.0233
     35 H17         1.9550   57.3652   73.4551 H           1 HUP       0.0377
     36 H18         3.1316   58.4773   72.7507 H           1 HUP       0.0377
     37 H19         1.7724   57.9095   71.7724 H           1 HUP       0.0377
@<TRIPOS>BOND
     1     4     1   1
     2     1     3  am
     3     1     2   2
     4     3     7   1
     5     7     8   1
     6     7     6   2
     7     6    14   1
     8     6     5   1
     9     5     4   2
    10    14    16   1
    11    14    15   1
    12    14    13   1
    13    13    12   2
    14    13     9   1
    15     9    10   1
    16     9     8   1
    17    10    17   2
    18    17    18   1
    19    16    17   1
    20    12    11   1
    21     3    19   1
    22     4    20   1
    23     5    21   1
    24     8    22   1
    25     8    23   1
    26     9    24   1
    27    10    25   1
    28    11    26   1
    29    11    27   1
    30    11    28   1
    31    12    29   1
    32    15    30   1
    33    15    31   1
    34    15    32   1
    35    16    33   1
    36    16    34   1
    37    18    35   1
    38    18    36   1
    39    18    37   1
@<TRIPOS>SUBSTRUCTURE
     1  HUP      1

