@<TRIPOS>MOLECULE
1gpk_ligand_074
    37    39
SMALL
GAST_HUCK
****
This file was generated by PARSER (from files_GN.cpp)

@<TRIPOS>ATOM
      1 C1          6.7008   60.0465   71.6709 C.2         1 HUP       0.2329
      2 O1          7.9215   60.1143   71.6795 O.2         1 HUP      -0.3876
      3 N1          5.9853   61.1676   71.7196 N.am        1 HUP      -0.1804
      4 C2          6.0600   58.8466   71.6061 C.2         1 HUP       0.0044
      5 C3          4.7119   58.8200   71.6137 C.2         1 HUP      -0.0667
      6 C4          3.9534   59.9788   71.7139 C.2         1 HUP      -0.0119
      7 C5          4.6342   61.1630   71.7070 C.2         1 HUP       0.1279
      8 C6          3.9546   62.4572   71.7092 C.3         1 HUP       0.0575
      9 C7          2.4250   62.3681   71.4082 C.3         1 HUP       0.0028
     10 C8          2.1840   62.1775   69.9711 C.2         1 HUP      -0.0963
     11 C9          0.4585   62.6065   73.7093 C.3         1 HUP      -0.0165
     12 C10         1.0181   61.3639   73.2154 C.2         1 HUP      -0.0578
     13 C11         1.8951   61.2350   72.1922 C.2         1 HUP      -0.0700
     14 C12         2.4575   59.9415   71.7131 C.3         1 HUP      -0.0531
     15 N2          1.9846   58.7795   72.5060 N.4         1 HUP       0.0987
     16 C13         1.9321   59.7588   70.2409 C.3         1 HUP      -0.0479
     17 C14         1.9798   60.9680   69.4039 C.2         1 HUP      -0.0960
     18 C15         1.7330   60.8723   67.9714 C.3         1 HUP      -0.0414
     19 H1          6.4519   62.0174   71.7612 H           1 HUP       0.2789
     20 H2          6.5776   58.0000   71.5308 H           1 HUP       0.0519
     21 H3          4.2677   57.9359   71.5301 H           1 HUP       0.0683
     22 H4          4.4301   63.1213   70.9796 H           1 HUP       0.0669
     23 H5          4.0966   62.9053   72.6971 H           1 HUP       0.0669
     24 H6          1.9725   63.3238   71.6839 H           1 HUP       0.0532
     25 H7          2.2245   62.9849   69.3890 H           1 HUP       0.0261
     26 H8          1.2546   63.2696   74.0535 H           1 HUP       0.0514
     27 H9         -0.2146   62.4181   74.5492 H           1 HUP       0.0514
     28 H10        -0.1131   63.0997   72.9213 H           1 HUP       0.0514
     29 H11         0.7165   60.5460   73.6888 H           1 HUP       0.1006
     30 H12         2.3058   57.9100   72.0777 H           1 HUP       0.1917
     31 H13         0.9629   58.7732   72.5314 H           1 HUP       0.1917
     32 H14         2.3463   58.8408   73.4605 H           1 HUP       0.1917
     33 H15         0.8874   59.4351   70.2701 H           1 HUP       0.0233
     34 H16         2.5006   58.9607   69.7533 H           1 HUP       0.0233
     35 H17         0.8636   61.4745   67.7006 H           1 HUP       0.0377
     36 H18         1.5405   59.8444   67.6569 H           1 HUP       0.0377
     37 H19         2.6013   61.2373   67.4199 H           1 HUP       0.0377
@<TRIPOS>BOND
     1     4     1   1
     2     1     3  am
     3     1     2   2
     4     3     7   1
     5     7     8   1
     6     7     6   2
     7     6    14   1
     8     6     5   1
     9     5     4   2
    10    14    16   1
    11    14    15   1
    12    14    13   1
    13    13    12   2
    14    13     9   1
    15     9    10   1
    16     9     8   1
    17    10    17   2
    18    17    18   1
    19    16    17   1
    20    12    11   1
    21     3    19   1
    22     4    20   1
    23     5    21   1
    24     8    22   1
    25     8    23   1
    26     9    24   1
    27    10    25   1
    28    11    26   1
    29    11    27   1
    30    11    28   1
    31    12    29   1
    32    15    30   1
    33    15    31   1
    34    15    32   1
    35    16    33   1
    36    16    34   1
    37    18    35   1
    38    18    36   1
    39    18    37   1
@<TRIPOS>SUBSTRUCTURE
     1  HUP      1

