@<TRIPOS>MOLECULE
1gpk_ligand_039
    37    39
SMALL
GAST_HUCK
****
This file was generated by PARSER (from files_GN.cpp)

@<TRIPOS>ATOM
      1 C1          0.9734   67.4628   62.3321 C.2         1 HUP       0.2329
      2 O1          1.6732   67.1066   61.3960 O.2         1 HUP      -0.3876
      3 N1          1.0593   66.8041   63.4882 N.am        1 HUP      -0.1804
      4 C2          0.1241   68.5173   62.2185 C.2         1 HUP       0.0044
      5 C3         -0.6133   68.8808   63.2915 C.2         1 HUP      -0.0667
      6 C4         -0.5636   68.1898   64.4938 C.2         1 HUP      -0.0119
      7 C5          0.3277   67.1602   64.5700 C.2         1 HUP       0.1279
      8 C6          0.4835   66.3600   65.7837 C.3         1 HUP       0.0575
      9 C7         -0.1442   67.0035   67.0606 C.3         1 HUP       0.0028
     10 C8          0.7047   68.0898   67.5697 C.2         1 HUP      -0.0963
     11 C9         -2.7736   65.9963   68.1874 C.3         1 HUP      -0.0165
     12 C10        -2.6373   67.0490   67.2013 C.2         1 HUP      -0.0578
     13 C11        -1.4779   67.5057   66.6789 C.2         1 HUP      -0.0700
     14 C12        -1.3839   68.6015   65.6817 C.3         1 HUP      -0.0531
     15 N2         -2.7209   69.0666   65.2386 N.4         1 HUP       0.0987
     16 C13        -0.6528   69.7745   66.4315 C.3         1 HUP      -0.0479
     17 C14         0.5192   69.3834   67.2375 C.2         1 HUP      -0.0960
     18 C15         1.4426   70.3890   67.7462 C.3         1 HUP      -0.0414
     19 H1          1.6640   66.0476   63.5508 H           1 HUP       0.2789
     20 H2          0.0719   69.0350   61.3728 H           1 HUP       0.0519
     21 H3         -1.1919   69.6758   63.1943 H           1 HUP       0.0683
     22 H4          1.5416   66.1620   65.9567 H           1 HUP       0.0669
     23 H5         -0.0008   65.4021   65.5980 H           1 HUP       0.0669
     24 H6         -0.1818   66.2383   67.8447 H           1 HUP       0.0532
     25 H7          1.5070   67.8267   68.1022 H           1 HUP       0.0261
     26 H8         -2.3587   65.0692   67.7952 H           1 HUP       0.0514
     27 H9         -3.8271   65.8272   68.4230 H           1 HUP       0.0514
     28 H10        -2.2583   66.2759   69.1044 H           1 HUP       0.0514
     29 H11        -3.4903   67.4522   66.8931 H           1 HUP       0.1006
     30 H12        -2.6316   69.8137   64.5542 H           1 HUP       0.1917
     31 H13        -3.2510   69.4218   66.0387 H           1 HUP       0.1917
     32 H14        -3.2360   68.2903   64.8140 H           1 HUP       0.1917
     33 H15        -1.3572   70.2569   67.1076 H           1 HUP       0.0233
     34 H16        -0.3538   70.5299   65.7089 H           1 HUP       0.0233
     35 H17         1.4293   70.4025   68.8383 H           1 HUP       0.0377
     36 H18         1.1908   71.3879   67.3926 H           1 HUP       0.0377
     37 H19         2.4549   70.1565   67.4130 H           1 HUP       0.0377
@<TRIPOS>BOND
     1     4     1   1
     2     1     3  am
     3     1     2   2
     4     3     7   1
     5     7     8   1
     6     7     6   2
     7     6    14   1
     8     6     5   1
     9     5     4   2
    10    14    16   1
    11    14    15   1
    12    14    13   1
    13    13    12   2
    14    13     9   1
    15     9    10   1
    16     9     8   1
    17    10    17   2
    18    17    18   1
    19    16    17   1
    20    12    11   1
    21     3    19   1
    22     4    20   1
    23     5    21   1
    24     8    22   1
    25     8    23   1
    26     9    24   1
    27    10    25   1
    28    11    26   1
    29    11    27   1
    30    11    28   1
    31    12    29   1
    32    15    30   1
    33    15    31   1
    34    15    32   1
    35    16    33   1
    36    16    34   1
    37    18    35   1
    38    18    36   1
    39    18    37   1
@<TRIPOS>SUBSTRUCTURE
     1  HUP      1

