@<TRIPOS>MOLECULE
1gpk_ligand_073
    37    39
SMALL
GAST_HUCK
****
This file was generated by PARSER (from files_GN.cpp)

@<TRIPOS>ATOM
      1 C1         -4.1855   67.2917   65.3782 C.2         1 HUP       0.2329
      2 O1         -5.2836   66.8372   65.0967 O.2         1 HUP      -0.3876
      3 N1         -3.2084   66.4653   65.7480 N.am        1 HUP      -0.1804
      4 C2         -3.9385   68.6282   65.3307 C.2         1 HUP       0.0044
      5 C3         -2.7096   69.0790   65.6511 C.2         1 HUP      -0.0667
      6 C4         -1.6925   68.2412   66.0696 C.2         1 HUP      -0.0119
      7 C5         -1.9733   66.9063   66.0629 C.2         1 HUP       0.1279
      8 C6         -0.9680   65.9109   66.4031 C.3         1 HUP       0.0575
      9 C7          0.4897   66.4617   66.4183 C.3         1 HUP       0.0028
     10 C8          1.0060   66.6238   65.0518 C.2         1 HUP      -0.0963
     11 C9          1.7349   66.9555   69.1329 C.3         1 HUP      -0.0165
     12 C10         1.0463   67.9526   68.3423 C.2         1 HUP      -0.0578
     13 C11         0.4549   67.7436   67.1431 C.2         1 HUP      -0.0700
     14 C12        -0.3248   68.7599   66.3903 C.3         1 HUP      -0.0531
     15 N2         -0.4401   70.0470   67.1272 N.4         1 HUP       0.0987
     16 C13         0.4822   69.0025   65.0599 C.3         1 HUP      -0.0479
     17 C14         0.9844   67.7941   64.3867 C.2         1 HUP      -0.0960
     18 C15         1.5642   67.8825   63.0531 C.3         1 HUP      -0.0414
     19 H1         -3.3907   65.5160   65.7929 H           1 HUP       0.2789
     20 H2         -4.6372   69.2603   65.0181 H           1 HUP       0.0519
     21 H3         -2.5455   70.0511   65.5880 H           1 HUP       0.0683
     22 H4         -1.0271   65.0854   65.6920 H           1 HUP       0.0669
     23 H5         -1.2165   65.5114   67.3926 H           1 HUP       0.0669
     24 H6          1.1412   65.7384   66.9077 H           1 HUP       0.0532
     25 H7          1.3370   65.8038   64.5884 H           1 HUP       0.0261
     26 H8          1.0513   66.1441   69.3889 H           1 HUP       0.0514
     27 H9          2.1142   67.3915   70.0596 H           1 HUP       0.0514
     28 H10         2.5793   66.5524   68.5733 H           1 HUP       0.0514
     29 H11         0.9997   68.8564   68.7415 H           1 HUP       0.1006
     30 H12        -0.9183   70.7451   66.5575 H           1 HUP       0.1917
     31 H13         0.4915   70.4016   67.3565 H           1 HUP       0.1917
     32 H14        -0.9701   69.9008   67.9903 H           1 HUP       0.1917
     33 H15         1.3605   69.6088   65.2910 H           1 HUP       0.0233
     34 H16        -0.1436   69.5668   64.3633 H           1 HUP       0.0233
     35 H17         2.6101   67.5751   63.0855 H           1 HUP       0.0377
     36 H18         1.5227   68.8974   62.6567 H           1 HUP       0.0377
     37 H19         1.0257   67.2251   62.3693 H           1 HUP       0.0377
@<TRIPOS>BOND
     1     4     1   1
     2     1     3  am
     3     1     2   2
     4     3     7   1
     5     7     8   1
     6     7     6   2
     7     6    14   1
     8     6     5   1
     9     5     4   2
    10    14    16   1
    11    14    15   1
    12    14    13   1
    13    13    12   2
    14    13     9   1
    15     9    10   1
    16     9     8   1
    17    10    17   2
    18    17    18   1
    19    16    17   1
    20    12    11   1
    21     3    19   1
    22     4    20   1
    23     5    21   1
    24     8    22   1
    25     8    23   1
    26     9    24   1
    27    10    25   1
    28    11    26   1
    29    11    27   1
    30    11    28   1
    31    12    29   1
    32    15    30   1
    33    15    31   1
    34    15    32   1
    35    16    33   1
    36    16    34   1
    37    18    35   1
    38    18    36   1
    39    18    37   1
@<TRIPOS>SUBSTRUCTURE
     1  HUP      1

