@<TRIPOS>MOLECULE
1gpk_ligand_041
    37    39
SMALL
GAST_HUCK
****
This file was generated by PARSER (from files_GN.cpp)

@<TRIPOS>ATOM
      1 C1          1.2670   68.8435   66.3008 C.2         1 HUP       0.2329
      2 O1          0.2518   69.1901   66.8813 O.2         1 HUP      -0.3876
      3 N1          1.2073   67.8267   65.4432 N.am        1 HUP      -0.1804
      4 C2          2.4516   69.4865   66.5001 C.2         1 HUP       0.0044
      5 C3          3.5474   69.0546   65.8473 C.2         1 HUP      -0.0667
      6 C4          3.5126   67.9605   64.9938 C.2         1 HUP      -0.0119
      7 C5          2.2902   67.3932   64.7654 C.2         1 HUP       0.1279
      8 C6          2.0990   66.2978   63.8181 C.3         1 HUP       0.0575
      9 C7          3.3283   66.0519   62.8853 C.3         1 HUP       0.0028
     10 C8          3.3803   67.0482   61.8063 C.2         1 HUP      -0.0963
     11 C9          5.1694   63.7115   63.4783 C.3         1 HUP      -0.0165
     12 C10         5.3425   65.0587   63.9843 C.2         1 HUP      -0.0578
     13 C11         4.5362   66.1157   63.7321 C.2         1 HUP      -0.0700
     14 C12         4.7326   67.4909   64.2708 C.3         1 HUP      -0.0531
     15 N2          5.9063   67.5933   65.1710 N.4         1 HUP       0.0987
     16 C13         5.0077   68.4123   63.0245 C.3         1 HUP      -0.0479
     17 C14         4.1345   68.1675   61.8656 C.2         1 HUP      -0.0960
     18 C15         4.1422   69.0921   60.7415 C.3         1 HUP      -0.0414
     19 H1          0.3530   67.3921   65.2936 H           1 HUP       0.2789
     20 H2          2.5024   70.2781   67.1022 H           1 HUP       0.0519
     21 H3          4.3928   69.5594   65.9812 H           1 HUP       0.0683
     22 H4          1.2123   66.4915   63.2052 H           1 HUP       0.0669
     23 H5          1.9017   65.3884   64.3940 H           1 HUP       0.0669
     24 H6          3.2012   65.0785   62.4106 H           1 HUP       0.0532
     25 H7          2.7848   66.9017   61.0208 H           1 HUP       0.0261
     26 H8          4.2114   63.3023   63.8066 H           1 HUP       0.0514
     27 H9          5.9649   63.0593   63.8461 H           1 HUP       0.0514
     28 H10         5.2075   63.7130   62.3879 H           1 HUP       0.0514
     29 H11         6.1285   65.1930   64.5720 H           1 HUP       0.1006
     30 H12         6.0738   68.5683   65.4293 H           1 HUP       0.1917
     31 H13         6.7280   67.2443   64.6842 H           1 HUP       0.1917
     32 H14         5.7551   67.0311   66.0120 H           1 HUP       0.1917
     33 H15         6.0386   68.2619   62.6840 H           1 HUP       0.0233
     34 H16         4.9181   69.4602   63.3271 H           1 HUP       0.0233
     35 H17         4.4469   68.5796   59.8286 H           1 HUP       0.0377
     36 H18         4.8255   69.9296   60.9075 H           1 HUP       0.0377
     37 H19         3.1371   69.4883   60.5872 H           1 HUP       0.0377
@<TRIPOS>BOND
     1     4     1   1
     2     1     3  am
     3     1     2   2
     4     3     7   1
     5     7     8   1
     6     7     6   2
     7     6    14   1
     8     6     5   1
     9     5     4   2
    10    14    16   1
    11    14    15   1
    12    14    13   1
    13    13    12   2
    14    13     9   1
    15     9    10   1
    16     9     8   1
    17    10    17   2
    18    17    18   1
    19    16    17   1
    20    12    11   1
    21     3    19   1
    22     4    20   1
    23     5    21   1
    24     8    22   1
    25     8    23   1
    26     9    24   1
    27    10    25   1
    28    11    26   1
    29    11    27   1
    30    11    28   1
    31    12    29   1
    32    15    30   1
    33    15    31   1
    34    15    32   1
    35    16    33   1
    36    16    34   1
    37    18    35   1
    38    18    36   1
    39    18    37   1
@<TRIPOS>SUBSTRUCTURE
     1  HUP      1

