@<TRIPOS>MOLECULE
1gpk_ligand_030
    37    39
SMALL
GAST_HUCK
****
This file was generated by PARSER (from files_GN.cpp)

@<TRIPOS>ATOM
      1 C1          2.8390   70.0517   67.4663 C.2         1 HUP       0.2329
      2 O1          3.4540   70.8200   68.1911 O.2         1 HUP      -0.3876
      3 N1          1.5090   70.1161   67.4190 N.am        1 HUP      -0.1804
      4 C2          3.4919   69.1340   66.7001 C.2         1 HUP       0.0044
      5 C3          2.7715   68.2580   65.9707 C.2         1 HUP      -0.0667
      6 C4          1.3846   68.2619   65.9732 C.2         1 HUP      -0.0119
      7 C5          0.7726   69.2677   66.6658 C.2         1 HUP       0.1279
      8 C6         -0.6797   69.4442   66.6639 C.3         1 HUP       0.0575
      9 C7         -1.4473   68.5486   65.6408 C.3         1 HUP       0.0028
     10 C8         -1.4334   69.1080   64.2850 C.2         1 HUP      -0.0963
     11 C9         -2.7853   65.9928   66.5447 C.3         1 HUP      -0.0165
     12 C10        -1.4307   66.0916   66.0359 C.2         1 HUP      -0.0578
     13 C11        -0.8086   67.2233   65.6342 C.2         1 HUP      -0.0700
     14 C12         0.5975   67.3014   65.1437 C.3         1 HUP      -0.0531
     15 N2          1.2556   65.9728   65.1046 N.4         1 HUP       0.0987
     16 C13         0.5480   67.8197   63.6580 C.3         1 HUP      -0.0479
     17 C14        -0.4708   68.8400   63.3761 C.2         1 HUP      -0.0960
     18 C15        -0.5104   69.4755   62.0635 C.3         1 HUP      -0.0414
     19 H1          1.0540   70.7971   67.9425 H           1 HUP       0.2789
     20 H2          4.4855   69.1237   66.6585 H           1 HUP       0.0519
     21 H3          3.2691   67.6198   65.3961 H           1 HUP       0.0683
     22 H4         -0.9220   70.4960   66.4791 H           1 HUP       0.0669
     23 H5         -1.0377   69.2041   67.6691 H           1 HUP       0.0669
     24 H6         -2.4959   68.5216   65.9557 H           1 HUP       0.0532
     25 H7         -2.1880   69.7081   64.0264 H           1 HUP       0.0261
     26 H8         -2.8986   66.6059   67.4422 H           1 HUP       0.0514
     27 H9         -3.0216   64.9596   66.8110 H           1 HUP       0.0514
     28 H10        -3.5014   66.3187   65.7911 H           1 HUP       0.0514
     29 H11        -0.9347   65.2396   65.9808 H           1 HUP       0.1006
     30 H12         2.1883   66.0442   64.6934 H           1 HUP       0.1917
     31 H13         0.6870   65.3564   64.5216 H           1 HUP       0.1917
     32 H14         1.3278   65.5813   66.0453 H           1 HUP       0.1917
     33 H15         0.3315   66.9799   62.9919 H           1 HUP       0.0233
     34 H16         1.5312   68.2082   63.3710 H           1 HUP       0.0233
     35 H17        -1.4612   69.2605   61.5651 H           1 HUP       0.0377
     36 H18         0.2963   69.1280   61.4101 H           1 HUP       0.0377
     37 H19        -0.4072   70.5604   62.1715 H           1 HUP       0.0377
@<TRIPOS>BOND
     1     4     1   1
     2     1     3  am
     3     1     2   2
     4     3     7   1
     5     7     8   1
     6     7     6   2
     7     6    14   1
     8     6     5   1
     9     5     4   2
    10    14    16   1
    11    14    15   1
    12    14    13   1
    13    13    12   2
    14    13     9   1
    15     9    10   1
    16     9     8   1
    17    10    17   2
    18    17    18   1
    19    16    17   1
    20    12    11   1
    21     3    19   1
    22     4    20   1
    23     5    21   1
    24     8    22   1
    25     8    23   1
    26     9    24   1
    27    10    25   1
    28    11    26   1
    29    11    27   1
    30    11    28   1
    31    12    29   1
    32    15    30   1
    33    15    31   1
    34    15    32   1
    35    16    33   1
    36    16    34   1
    37    18    35   1
    38    18    36   1
    39    18    37   1
@<TRIPOS>SUBSTRUCTURE
     1  HUP      1

