@<TRIPOS>MOLECULE
1gpk_ligand_015
    37    39
SMALL
GAST_HUCK
****
This file was generated by PARSER (from files_GN.cpp)

@<TRIPOS>ATOM
      1 C1          1.6153   66.6065   69.2956 C.2         1 HUP       0.2329
      2 O1          1.1870   66.6773   70.4370 O.2         1 HUP      -0.3876
      3 N1          1.5307   67.6714   68.5025 N.am        1 HUP      -0.1804
      4 C2          2.1812   65.4611   68.8268 C.2         1 HUP       0.0044
      5 C3          2.6207   65.4217   67.5526 C.2         1 HUP      -0.0667
      6 C4          2.4892   66.5046   66.6941 C.2         1 HUP      -0.0119
      7 C5          1.9838   67.6569   67.2274 C.2         1 HUP       0.1279
      8 C6          1.8903   68.8980   66.4613 C.3         1 HUP       0.0575
      9 C7          2.6861   68.8683   65.1182 C.3         1 HUP       0.0028
     10 C8          4.1233   69.0577   65.3561 C.2         1 HUP      -0.0963
     11 C9          1.1626   68.4861   62.5202 C.3         1 HUP      -0.0165
     12 C10         1.7323   67.4193   63.3207 C.2         1 HUP      -0.0578
     13 C11         2.4159   67.5672   64.4799 C.2         1 HUP      -0.0700
     14 C12         2.9830   66.4492   65.2826 C.3         1 HUP      -0.0531
     15 N2          2.6911   65.1161   64.6972 N.4         1 HUP       0.0987
     16 C13         4.5442   66.6486   65.2594 C.3         1 HUP      -0.0479
     17 C14         5.0005   68.0337   65.4568 C.2         1 HUP      -0.0960
     18 C15         6.4136   68.3083   65.6769 C.3         1 HUP      -0.0414
     19 H1          1.1377   68.4808   68.8685 H           1 HUP       0.2789
     20 H2          2.2802   64.6657   69.4169 H           1 HUP       0.0519
     21 H3          3.0516   64.5837   67.2387 H           1 HUP       0.0683
     22 H4          2.2424   69.7344   67.0731 H           1 HUP       0.0669
     23 H5          0.8329   69.0772   66.2462 H           1 HUP       0.0669
     24 H6          2.3525   69.7070   64.5065 H           1 HUP       0.0532
     25 H7          4.4446   69.9904   65.4990 H           1 HUP       0.0261
     26 H8          0.4293   69.0462   63.1039 H           1 HUP       0.0514
     27 H9          0.6581   68.0784   61.6411 H           1 HUP       0.0514
     28 H10         1.9482   69.1621   62.1766 H           1 HUP       0.0514
     29 H11         1.5923   66.5038   62.9672 H           1 HUP       0.1006
     30 H12         3.1868   64.3886   65.2158 H           1 HUP       0.1917
     31 H13         3.0014   65.0920   63.7228 H           1 HUP       0.1917
     32 H14         1.6851   64.9337   64.7345 H           1 HUP       0.1917
     33 H15         4.9355   66.3194   64.2917 H           1 HUP       0.0233
     34 H16         4.9996   66.0076   66.0200 H           1 HUP       0.0233
     35 H17         6.7973   68.9503   64.8809 H           1 HUP       0.0377
     36 H18         7.0132   67.3952   65.6903 H           1 HUP       0.0377
     37 H19         6.5460   68.8139   66.6353 H           1 HUP       0.0377
@<TRIPOS>BOND
     1     4     1   1
     2     1     3  am
     3     1     2   2
     4     3     7   1
     5     7     8   1
     6     7     6   2
     7     6    14   1
     8     6     5   1
     9     5     4   2
    10    14    16   1
    11    14    15   1
    12    14    13   1
    13    13    12   2
    14    13     9   1
    15     9    10   1
    16     9     8   1
    17    10    17   2
    18    17    18   1
    19    16    17   1
    20    12    11   1
    21     3    19   1
    22     4    20   1
    23     5    21   1
    24     8    22   1
    25     8    23   1
    26     9    24   1
    27    10    25   1
    28    11    26   1
    29    11    27   1
    30    11    28   1
    31    12    29   1
    32    15    30   1
    33    15    31   1
    34    15    32   1
    35    16    33   1
    36    16    34   1
    37    18    35   1
    38    18    36   1
    39    18    37   1
@<TRIPOS>SUBSTRUCTURE
     1  HUP      1

