@<TRIPOS>MOLECULE
1gpk_ligand_018
    37    39
SMALL
GAST_HUCK
****
This file was generated by PARSER (from files_GN.cpp)

@<TRIPOS>ATOM
      1 C1          1.0725   67.8049   62.2144 C.2         1 HUP       0.2329
      2 O1          0.4379   67.6626   61.1800 O.2         1 HUP      -0.3876
      3 N1          0.9800   66.8831   63.1687 N.am        1 HUP      -0.1804
      4 C2          1.8843   68.8792   62.4091 C.2         1 HUP       0.0044
      5 C3          2.5503   68.9939   63.5763 C.2         1 HUP      -0.0667
      6 C4          2.4206   68.0668   64.5992 C.2         1 HUP      -0.0119
      7 C5          1.6535   66.9699   64.3346 C.2         1 HUP       0.1279
      8 C6          1.5099   65.8688   65.2845 C.3         1 HUP       0.0575
      9 C7          2.5372   65.9155   66.4613 C.3         1 HUP       0.0028
     10 C8          3.8562   65.4408   66.0255 C.2         1 HUP      -0.0963
     11 C9          1.6054   66.8821   69.1827 C.3         1 HUP      -0.0165
     12 C10         2.1675   67.7246   68.1462 C.2         1 HUP      -0.0578
     13 C11         2.5953   67.3124   66.9296 C.2         1 HUP      -0.0700
     14 C12         3.1738   68.1997   65.8851 C.3         1 HUP      -0.0531
     15 N2          3.2131   69.6216   66.3006 N.4         1 HUP       0.0987
     16 C13         4.6600   67.7260   65.6812 C.3         1 HUP      -0.0479
     17 C14         4.8477   66.2685   65.6295 C.2         1 HUP      -0.0960
     18 C15         6.1327   65.7171   65.2299 C.3         1 HUP      -0.0414
     19 H1          0.4050   66.1214   63.0226 H           1 HUP       0.2789
     20 H2          1.9984   69.5593   61.6929 H           1 HUP       0.0519
     21 H3          3.1676   69.7593   63.6851 H           1 HUP       0.0683
     22 H4          1.6022   64.9133   64.7576 H           1 HUP       0.0669
     23 H5          0.4960   65.9137   65.6915 H           1 HUP       0.0669
     24 H6          2.2017   65.2312   67.2404 H           1 HUP       0.0532
     25 H7          3.9963   64.4556   65.9755 H           1 HUP       0.0261
     26 H8          0.6955   66.4003   68.8214 H           1 HUP       0.0514
     27 H9          1.3496   67.4727   70.0619 H           1 HUP       0.0514
     28 H10         2.3272   66.1251   69.4937 H           1 HUP       0.0514
     29 H11         2.2498   68.6857   68.3786 H           1 HUP       0.1006
     30 H12         3.7160   70.1685   65.6009 H           1 HUP       0.1917
     31 H13         3.6988   69.7103   67.1951 H           1 HUP       0.1917
     32 H14         2.2598   69.9762   66.4000 H           1 HUP       0.1917
     33 H15         5.2753   68.0990   66.5053 H           1 HUP       0.0233
     34 H16         5.0579   68.1720   64.7654 H           1 HUP       0.0233
     35 H17         6.5521   65.1243   66.0436 H           1 HUP       0.0377
     36 H18         6.8547   66.4978   64.9826 H           1 HUP       0.0377
     37 H19         6.0028   65.0786   64.3534 H           1 HUP       0.0377
@<TRIPOS>BOND
     1     4     1   1
     2     1     3  am
     3     1     2   2
     4     3     7   1
     5     7     8   1
     6     7     6   2
     7     6    14   1
     8     6     5   1
     9     5     4   2
    10    14    16   1
    11    14    15   1
    12    14    13   1
    13    13    12   2
    14    13     9   1
    15     9    10   1
    16     9     8   1
    17    10    17   2
    18    17    18   1
    19    16    17   1
    20    12    11   1
    21     3    19   1
    22     4    20   1
    23     5    21   1
    24     8    22   1
    25     8    23   1
    26     9    24   1
    27    10    25   1
    28    11    26   1
    29    11    27   1
    30    11    28   1
    31    12    29   1
    32    15    30   1
    33    15    31   1
    34    15    32   1
    35    16    33   1
    36    16    34   1
    37    18    35   1
    38    18    36   1
    39    18    37   1
@<TRIPOS>SUBSTRUCTURE
     1  HUP      1

