@<TRIPOS>MOLECULE
1gpk_ligand_069
    37    39
SMALL
GAST_HUCK
****
This file was generated by PARSER (from files_GN.cpp)

@<TRIPOS>ATOM
      1 C1          5.0655   64.9861   70.6380 C.2         1 HUP       0.2329
      2 O1          5.9682   65.8003   70.7697 O.2         1 HUP      -0.3876
      3 N1          5.3467   63.6973   70.7742 N.am        1 HUP      -0.1804
      4 C2          3.7786   65.3777   70.4236 C.2         1 HUP       0.0044
      5 C3          2.8209   64.4400   70.3064 C.2         1 HUP      -0.0667
      6 C4          3.1095   63.0851   70.3851 C.2         1 HUP      -0.0119
      7 C5          4.3956   62.7426   70.6854 C.2         1 HUP       0.1279
      8 C6          4.8132   61.3589   70.8960 C.3         1 HUP       0.0575
      9 C7          3.6222   60.3606   71.0426 C.3         1 HUP       0.0028
     10 C8          3.0298   60.4424   72.3837 C.2         1 HUP      -0.0963
     11 C9          2.8845   58.6100   68.6901 C.3         1 HUP      -0.0165
     12 C10         2.3256   59.9163   68.9563 C.2         1 HUP      -0.0578
     13 C11         2.6344   60.7120   70.0057 C.2         1 HUP      -0.0700
     14 C12         2.0398   62.0514   70.2540 C.3         1 HUP      -0.0531
     15 N2          1.0774   62.4641   69.2041 N.4         1 HUP       0.0987
     16 C13         1.2464   61.9288   71.6066 C.3         1 HUP      -0.0479
     17 C14         1.9407   61.1925   72.6741 C.2         1 HUP      -0.0960
     18 C15         1.4103   61.2031   74.0301 C.3         1 HUP      -0.0414
     19 H1          6.2610   63.4380   70.9734 H           1 HUP       0.2789
     20 H2          3.5339   66.3401   70.3976 H           1 HUP       0.0519
     21 H3          1.8857   64.7513   70.1750 H           1 HUP       0.0683
     22 H4          5.4504   61.2983   71.7809 H           1 HUP       0.0669
     23 H5          5.4231   61.0651   70.0360 H           1 HUP       0.0669
     24 H6          4.0182   59.3484   70.9275 H           1 HUP       0.0532
     25 H7          3.4937   59.9601   73.1195 H           1 HUP       0.0261
     26 H8          3.9627   58.6872   68.5496 H           1 HUP       0.0514
     27 H9          2.4515   58.2030   67.7791 H           1 HUP       0.0514
     28 H10         2.6606   57.9188   69.5044 H           1 HUP       0.0514
     29 H11         1.6618   60.2353   68.2948 H           1 HUP       0.1006
     30 H12         0.6141   63.3345   69.4683 H           1 HUP       0.1917
     31 H13         0.3641   61.7431   69.0911 H           1 HUP       0.1917
     32 H14         1.5661   62.5940   68.3162 H           1 HUP       0.1917
     33 H15         0.3017   61.4095   71.4221 H           1 HUP       0.0233
     34 H16         0.9961   62.9317   71.9677 H           1 HUP       0.0233
     35 H17         1.1601   60.1869   74.3436 H           1 HUP       0.0377
     36 H18         0.5063   61.8104   74.1112 H           1 HUP       0.0377
     37 H19         2.1555   61.6123   74.7155 H           1 HUP       0.0377
@<TRIPOS>BOND
     1     4     1   1
     2     1     3  am
     3     1     2   2
     4     3     7   1
     5     7     8   1
     6     7     6   2
     7     6    14   1
     8     6     5   1
     9     5     4   2
    10    14    16   1
    11    14    15   1
    12    14    13   1
    13    13    12   2
    14    13     9   1
    15     9    10   1
    16     9     8   1
    17    10    17   2
    18    17    18   1
    19    16    17   1
    20    12    11   1
    21     3    19   1
    22     4    20   1
    23     5    21   1
    24     8    22   1
    25     8    23   1
    26     9    24   1
    27    10    25   1
    28    11    26   1
    29    11    27   1
    30    11    28   1
    31    12    29   1
    32    15    30   1
    33    15    31   1
    34    15    32   1
    35    16    33   1
    36    16    34   1
    37    18    35   1
    38    18    36   1
    39    18    37   1
@<TRIPOS>SUBSTRUCTURE
     1  HUP      1

