@<TRIPOS>MOLECULE
1gpk_ligand_070
    37    39
SMALL
GAST_HUCK
****
This file was generated by PARSER (from files_GN.cpp)

@<TRIPOS>ATOM
      1 C1          3.8061   59.2646   68.4030 C.2         1 HUP       0.2329
      2 O1          4.0374   58.4555   67.5173 O.2         1 HUP      -0.3876
      3 N1          2.7049   59.1252   69.1369 N.am        1 HUP      -0.1804
      4 C2          4.6737   60.2752   68.6744 C.2         1 HUP       0.0044
      5 C3          4.3894   61.1334   69.6729 C.2         1 HUP      -0.0667
      6 C4          3.2169   61.0336   70.4112 C.2         1 HUP      -0.0119
      7 C5          2.4059   59.9673   70.1544 C.2         1 HUP       0.1279
      8 C6          1.2006   59.7015   70.9372 C.3         1 HUP       0.0575
      9 C7          1.0829   60.5369   72.2488 C.3         1 HUP       0.0028
     10 C8          1.9401   59.9774   73.2980 C.2         1 HUP      -0.0963
     11 C9         -0.7744   62.9333   72.3000 C.3         1 HUP      -0.0165
     12 C10         0.6292   62.9735   71.9409 C.2         1 HUP      -0.0578
     13 C11         1.4757   61.9169   71.9089 C.2         1 HUP      -0.0700
     14 C12         2.9114   61.9886   71.5209 C.3         1 HUP      -0.0531
     15 N2          3.3261   63.3543   71.1210 N.4         1 HUP       0.0987
     16 C13         3.7206   61.5831   72.8077 C.3         1 HUP      -0.0479
     17 C14         3.1895   60.4268   73.5475 C.2         1 HUP      -0.0960
     18 C15         3.9671   59.8270   74.6186 C.3         1 HUP      -0.0414
     19 H1          2.1222   58.3742   68.9450 H           1 HUP       0.2789
     20 H2          5.5206   60.3588   68.1629 H           1 HUP       0.0519
     21 H3          5.0582   61.8395   69.8807 H           1 HUP       0.0683
     22 H4          1.1491   58.6326   71.1779 H           1 HUP       0.0669
     23 H5          0.3399   59.9497   70.3167 H           1 HUP       0.0669
     24 H6          0.0530   60.4614   72.6043 H           1 HUP       0.0532
     25 H7          1.5989   59.1834   73.7954 H           1 HUP       0.0261
     26 H8         -1.3216   62.2746   71.6224 H           1 HUP       0.0514
     27 H9         -1.2101   63.9321   72.2309 H           1 HUP       0.0514
     28 H10        -0.8939   62.5815   73.3261 H           1 HUP       0.0514
     29 H11         0.9785   63.8692   71.6950 H           1 HUP       0.1006
     30 H12         4.3383   63.3912   70.9844 H           1 HUP       0.1917
     31 H13         3.0645   64.0002   71.8635 H           1 HUP       0.1917
     32 H14         2.8553   63.6222   70.2523 H           1 HUP       0.1917
     33 H15         3.7117   62.4241   73.5047 H           1 HUP       0.0233
     34 H16         4.7652   61.3938   72.5379 H           1 HUP       0.0233
     35 H17         3.4283   59.9058   75.5673 H           1 HUP       0.0377
     36 H18         4.9300   60.3242   74.7316 H           1 HUP       0.0377
     37 H19         4.1508   58.7728   74.3981 H           1 HUP       0.0377
@<TRIPOS>BOND
     1     4     1   1
     2     1     3  am
     3     1     2   2
     4     3     7   1
     5     7     8   1
     6     7     6   2
     7     6    14   1
     8     6     5   1
     9     5     4   2
    10    14    16   1
    11    14    15   1
    12    14    13   1
    13    13    12   2
    14    13     9   1
    15     9    10   1
    16     9     8   1
    17    10    17   2
    18    17    18   1
    19    16    17   1
    20    12    11   1
    21     3    19   1
    22     4    20   1
    23     5    21   1
    24     8    22   1
    25     8    23   1
    26     9    24   1
    27    10    25   1
    28    11    26   1
    29    11    27   1
    30    11    28   1
    31    12    29   1
    32    15    30   1
    33    15    31   1
    34    15    32   1
    35    16    33   1
    36    16    34   1
    37    18    35   1
    38    18    36   1
    39    18    37   1
@<TRIPOS>SUBSTRUCTURE
     1  HUP      1

