@<TRIPOS>MOLECULE
1gpk_ligand_036
    37    39
SMALL
GAST_HUCK
****
This file was generated by PARSER (from files_GN.cpp)

@<TRIPOS>ATOM
      1 C1          2.2163   55.4675   72.9066 C.2         1 HUP       0.2329
      2 O1          2.1026   54.2809   72.6389 O.2         1 HUP      -0.3876
      3 N1          2.4565   56.3352   71.9264 N.am        1 HUP      -0.1804
      4 C2          2.0881   55.9177   74.1850 C.2         1 HUP       0.0044
      5 C3          2.2359   57.2353   74.4333 C.2         1 HUP      -0.0667
      6 C4          2.5373   58.1460   73.4291 C.2         1 HUP      -0.0119
      7 C5          2.5872   57.6608   72.1534 C.2         1 HUP       0.1279
      8 C6          2.7983   58.5268   70.9951 C.3         1 HUP       0.0575
      9 C7          2.6494   60.0499   71.3075 C.3         1 HUP       0.0028
     10 C8          1.2331   60.4297   71.4072 C.2         1 HUP      -0.0963
     11 C9          5.1558   61.7385   71.6004 C.3         1 HUP      -0.0165
     12 C10         4.4758   61.0569   72.6841 C.2         1 HUP      -0.0578
     13 C11         3.3584   60.3011   72.5770 C.2         1 HUP      -0.0700
     14 C12         2.6883   59.6085   73.7126 C.3         1 HUP      -0.0531
     15 N2          3.3979   59.7988   75.0037 N.4         1 HUP       0.0987
     16 C13         1.2686   60.2727   73.8489 C.3         1 HUP      -0.0479
     17 C14         0.5645   60.5112   72.5787 C.2         1 HUP      -0.0960
     18 C15        -0.8367   60.9123   72.5869 C.3         1 HUP      -0.0414
     19 H1          2.5354   56.0046   71.0170 H           1 HUP       0.2789
     20 H2          1.8713   55.2896   74.9249 H           1 HUP       0.0519
     21 H3          2.1051   57.5464   75.3675 H           1 HUP       0.0683
     22 H4          2.0993   58.2512   70.1996 H           1 HUP       0.0669
     23 H5          3.8067   58.3368   70.6163 H           1 HUP       0.0669
     24 H6          3.0721   60.6080   70.4687 H           1 HUP       0.0532
     25 H7          0.7387   60.5826   70.5558 H           1 HUP       0.0261
     26 H8          5.4849   61.0183   70.8485 H           1 HUP       0.0514
     27 H9          6.0356   62.2691   71.9724 H           1 HUP       0.0514
     28 H10         4.4901   62.4709   71.1405 H           1 HUP       0.0514
     29 H11         4.8886   61.1667   73.5781 H           1 HUP       0.1006
     30 H12         2.8493   59.3988   75.7666 H           1 HUP       0.1917
     31 H13         3.5390   60.7953   75.1932 H           1 HUP       0.1917
     32 H14         4.3077   59.3350   74.9636 H           1 HUP       0.1917
     33 H15         1.3727   61.2442   74.3426 H           1 HUP       0.0233
     34 H16         0.6422   59.6518   74.4962 H           1 HUP       0.0233
     35 H17        -0.9502   61.8919   72.1160 H           1 HUP       0.0377
     36 H18        -1.2364   60.9810   73.6013 H           1 HUP       0.0377
     37 H19        -1.4344   60.1822   72.0350 H           1 HUP       0.0377
@<TRIPOS>BOND
     1     4     1   1
     2     1     3  am
     3     1     2   2
     4     3     7   1
     5     7     8   1
     6     7     6   2
     7     6    14   1
     8     6     5   1
     9     5     4   2
    10    14    16   1
    11    14    15   1
    12    14    13   1
    13    13    12   2
    14    13     9   1
    15     9    10   1
    16     9     8   1
    17    10    17   2
    18    17    18   1
    19    16    17   1
    20    12    11   1
    21     3    19   1
    22     4    20   1
    23     5    21   1
    24     8    22   1
    25     8    23   1
    26     9    24   1
    27    10    25   1
    28    11    26   1
    29    11    27   1
    30    11    28   1
    31    12    29   1
    32    15    30   1
    33    15    31   1
    34    15    32   1
    35    16    33   1
    36    16    34   1
    37    18    35   1
    38    18    36   1
    39    18    37   1
@<TRIPOS>SUBSTRUCTURE
     1  HUP      1

