@<TRIPOS>MOLECULE
1gpk_ligand_024
    37    39
SMALL
GAST_HUCK
****
This file was generated by PARSER (from files_GN.cpp)

@<TRIPOS>ATOM
      1 C1          4.0267   59.9835   69.3035 C.2         1 HUP       0.2329
      2 O1          4.5171   60.5295   68.3262 O.2         1 HUP      -0.3876
      3 N1          4.3968   60.3730   70.5213 N.am        1 HUP      -0.1804
      4 C2          3.1030   58.9915   69.1687 C.2         1 HUP       0.0044
      5 C3          2.6010   58.4083   70.2768 C.2         1 HUP      -0.0667
      6 C4          3.0146   58.7702   71.5526 C.2         1 HUP      -0.0119
      7 C5          3.8885   59.8161   71.6428 C.2         1 HUP       0.1279
      8 C6          4.3283   60.3608   72.9265 C.3         1 HUP       0.0575
      9 C7          3.4893   59.8617   74.1453 C.3         1 HUP       0.0028
     10 C8          2.2022   60.5668   74.2200 C.2         1 HUP      -0.0963
     11 C9          4.6512   57.7107   75.9458 C.3         1 HUP      -0.0165
     12 C10         3.8196   57.4665   74.7840 C.2         1 HUP      -0.0578
     13 C11         3.2915   58.4094   73.9687 C.2         1 HUP      -0.0700
     14 C12         2.4450   58.1243   72.7764 C.3         1 HUP      -0.0531
     15 N2          2.2596   56.6713   72.5361 N.4         1 HUP       0.0987
     16 C13         1.0307   58.7388   73.0918 C.3         1 HUP      -0.0479
     17 C14         1.0516   60.0735   73.7108 C.2         1 HUP      -0.0960
     18 C15        -0.1842   60.8339   73.8434 C.3         1 HUP      -0.0414
     19 H1          5.0504   61.0856   70.6057 H           1 HUP       0.2789
     20 H2          2.7864   58.7124   68.2677 H           1 HUP       0.0519
     21 H3          1.9047   57.7111   70.1557 H           1 HUP       0.0683
     22 H4          4.2982   61.4546   72.8892 H           1 HUP       0.0669
     23 H5          5.3732   60.0698   73.0708 H           1 HUP       0.0669
     24 H6          4.0411   60.1072   75.0556 H           1 HUP       0.0532
     25 H7          2.2015   61.4765   74.6257 H           1 HUP       0.0261
     26 H8          5.5584   58.2442   75.6561 H           1 HUP       0.0514
     27 H9          4.9455   56.7678   76.4129 H           1 HUP       0.0514
     28 H10         4.1019   58.2974   76.6841 H           1 HUP       0.0514
     29 H11         3.6359   56.5116   74.5878 H           1 HUP       0.1006
     30 H12         1.5885   56.5243   71.7805 H           1 HUP       0.1917
     31 H13         1.9007   56.2258   73.3833 H           1 HUP       0.1917
     32 H14         3.1548   56.2458   72.2846 H           1 HUP       0.1917
     33 H15         0.4966   58.0780   73.7818 H           1 HUP       0.0233
     34 H16         0.4433   58.7791   72.1692 H           1 HUP       0.0233
     35 H17        -0.3904   61.0332   74.8972 H           1 HUP       0.0377
     36 H18        -1.0411   60.2983   73.4288 H           1 HUP       0.0377
     37 H19        -0.0925   61.7852   73.3151 H           1 HUP       0.0377
@<TRIPOS>BOND
     1     4     1   1
     2     1     3  am
     3     1     2   2
     4     3     7   1
     5     7     8   1
     6     7     6   2
     7     6    14   1
     8     6     5   1
     9     5     4   2
    10    14    16   1
    11    14    15   1
    12    14    13   1
    13    13    12   2
    14    13     9   1
    15     9    10   1
    16     9     8   1
    17    10    17   2
    18    17    18   1
    19    16    17   1
    20    12    11   1
    21     3    19   1
    22     4    20   1
    23     5    21   1
    24     8    22   1
    25     8    23   1
    26     9    24   1
    27    10    25   1
    28    11    26   1
    29    11    27   1
    30    11    28   1
    31    12    29   1
    32    15    30   1
    33    15    31   1
    34    15    32   1
    35    16    33   1
    36    16    34   1
    37    18    35   1
    38    18    36   1
    39    18    37   1
@<TRIPOS>SUBSTRUCTURE
     1  HUP      1

