@<TRIPOS>MOLECULE
1gpk_ligand_009
    37    39
SMALL
GAST_HUCK
****
This file was generated by PARSER (from files_GN.cpp)

@<TRIPOS>ATOM
      1 C1          5.2588   69.8888   65.6647 C.2         1 HUP       0.2329
      2 O1          6.0544   70.8072   65.5354 O.2         1 HUP      -0.3876
      3 N1          4.2543   70.0251   66.5276 N.am        1 HUP      -0.1804
      4 C2          5.3655   68.7438   64.9362 C.2         1 HUP       0.0044
      5 C3          4.4711   67.7535   65.1335 C.2         1 HUP      -0.0667
      6 C4          3.4420   67.8663   66.0589 C.2         1 HUP      -0.0119
      7 C5          3.3219   69.0638   66.7072 C.2         1 HUP       0.1279
      8 C6          2.2229   69.3595   67.6254 C.3         1 HUP       0.0575
      9 C7          1.0707   68.3039   67.5842 C.3         1 HUP       0.0028
     10 C8          0.2085   68.5249   66.4138 C.2         1 HUP      -0.0963
     11 C9          0.9721   66.2505   69.8213 C.3         1 HUP      -0.0165
     12 C10         1.6660   66.0775   68.5589 C.2         1 HUP      -0.0578
     13 C11         1.7098   66.9730   67.5445 C.2         1 HUP      -0.0700
     14 C12         2.4481   66.7682   66.2675 C.3         1 HUP      -0.0531
     15 N2          3.1192   65.4469   66.1820 N.4         1 HUP       0.0987
     16 C13         1.3626   66.7961   65.1286 C.3         1 HUP      -0.0479
     17 C14         0.3496   67.8541   65.2501 C.2         1 HUP      -0.0960
     18 C15        -0.5611   68.1178   64.1434 C.3         1 HUP      -0.0414
     19 H1          4.1853   70.8462   67.0382 H           1 HUP       0.2789
     20 H2          6.0806   68.6442   64.2510 H           1 HUP       0.0519
     21 H3          4.5531   66.9386   64.5719 H           1 HUP       0.0683
     22 H4          1.8170   70.3522   67.4045 H           1 HUP       0.0669
     23 H5          2.6300   69.4033   68.6397 H           1 HUP       0.0669
     24 H6          0.4477   68.4459   68.4694 H           1 HUP       0.0532
     25 H7         -0.4712   69.2479   66.4772 H           1 HUP       0.0261
     26 H8          1.3719   67.1171   70.3494 H           1 HUP       0.0514
     27 H9          1.1068   65.3739   70.4596 H           1 HUP       0.0514
     28 H10        -0.0988   66.3884   69.6536 H           1 HUP       0.0514
     29 H11         2.1547   65.2195   68.4584 H           1 HUP       0.1006
     30 H12         3.5012   65.3078   65.2433 H           1 HUP       0.1917
     31 H13         2.4392   64.7098   66.3765 H           1 HUP       0.1917
     32 H14         3.8783   65.3940   66.8629 H           1 HUP       0.1917
     33 H15         0.8208   65.8448   65.1302 H           1 HUP       0.0233
     34 H16         1.8609   66.8821   64.1579 H           1 HUP       0.0233
     35 H17        -1.5922   67.9347   64.4535 H           1 HUP       0.0377
     36 H18        -0.3535   67.4815   63.2797 H           1 HUP       0.0377
     37 H19        -0.4660   69.1581   63.8252 H           1 HUP       0.0377
@<TRIPOS>BOND
     1     4     1   1
     2     1     3  am
     3     1     2   2
     4     3     7   1
     5     7     8   1
     6     7     6   2
     7     6    14   1
     8     6     5   1
     9     5     4   2
    10    14    16   1
    11    14    15   1
    12    14    13   1
    13    13    12   2
    14    13     9   1
    15     9    10   1
    16     9     8   1
    17    10    17   2
    18    17    18   1
    19    16    17   1
    20    12    11   1
    21     3    19   1
    22     4    20   1
    23     5    21   1
    24     8    22   1
    25     8    23   1
    26     9    24   1
    27    10    25   1
    28    11    26   1
    29    11    27   1
    30    11    28   1
    31    12    29   1
    32    15    30   1
    33    15    31   1
    34    15    32   1
    35    16    33   1
    36    16    34   1
    37    18    35   1
    38    18    36   1
    39    18    37   1
@<TRIPOS>SUBSTRUCTURE
     1  HUP      1

