@<TRIPOS>MOLECULE
1gpk_ligand_029
    37    39
SMALL
GAST_HUCK
****
This file was generated by PARSER (from files_GN.cpp)

@<TRIPOS>ATOM
      1 C1          0.5876   56.6525   72.2167 C.2         1 HUP       0.2329
      2 O1          0.2096   55.4962   72.3406 O.2         1 HUP      -0.3876
      3 N1          1.8073   56.8906   71.7410 N.am        1 HUP      -0.1804
      4 C2         -0.2208   57.6989   72.5456 C.2         1 HUP       0.0044
      5 C3          0.2458   58.9556   72.4091 C.2         1 HUP      -0.0667
      6 C4          1.5398   59.2175   71.9821 C.2         1 HUP      -0.0119
      7 C5          2.2895   58.1443   71.5878 C.2         1 HUP       0.1279
      8 C6          3.6333   58.2871   71.0339 C.3         1 HUP       0.0575
      9 C7          4.0019   59.7547   70.6486 C.3         1 HUP       0.0028
     10 C8          3.3763   60.1408   69.3777 C.2         1 HUP      -0.0963
     11 C9          5.8227   61.3806   72.4453 C.3         1 HUP      -0.0165
     12 C10         4.3780   61.3285   72.5518 C.2         1 HUP      -0.0578
     13 C11         3.5447   60.6206   71.7525 C.2         1 HUP      -0.0700
     14 C12         2.0599   60.6160   71.8582 C.3         1 HUP      -0.0531
     15 N2          1.5618   61.4435   72.9855 N.4         1 HUP       0.0987
     16 C13         1.5299   61.2661   70.5259 C.3         1 HUP      -0.0479
     17 C14         2.2137   60.8268   69.2995 C.2         1 HUP      -0.0960
     18 C15         1.6873   61.2093   67.9971 C.3         1 HUP      -0.0414
     19 H1          2.3708   56.1394   71.4962 H           1 HUP       0.2789
     20 H2         -1.1520   57.5416   72.8579 H           1 HUP       0.0519
     21 H3         -0.3724   59.7048   72.6134 H           1 HUP       0.0683
     22 H4          3.7391   57.6440   70.1540 H           1 HUP       0.0669
     23 H5          4.3412   57.9273   71.7865 H           1 HUP       0.0669
     24 H6          5.0815   59.8011   70.5005 H           1 HUP       0.0532
     25 H7          3.8178   59.8387   68.5378 H           1 HUP       0.0261
     26 H8          6.2527   60.3911   72.6139 H           1 HUP       0.0514
     27 H9          6.2306   62.0651   73.1891 H           1 HUP       0.0514
     28 H10         6.1184   61.7425   71.4581 H           1 HUP       0.0514
     29 H11         3.9846   61.8752   73.2781 H           1 HUP       0.1006
     30 H12         0.5437   61.4931   72.9530 H           1 HUP       0.1917
     31 H13         1.9388   62.3913   72.9118 H           1 HUP       0.1917
     32 H14         1.8553   61.0312   73.8738 H           1 HUP       0.1917
     33 H15         1.6522   62.3520   70.5842 H           1 HUP       0.0233
     34 H16         0.4577   61.0705   70.4365 H           1 HUP       0.0233
     35 H17         2.4055   61.8308   67.4594 H           1 HUP       0.0377
     36 H18         0.7586   61.7740   68.0950 H           1 HUP       0.0377
     37 H19         1.4788   60.3189   67.4011 H           1 HUP       0.0377
@<TRIPOS>BOND
     1     4     1   1
     2     1     3  am
     3     1     2   2
     4     3     7   1
     5     7     8   1
     6     7     6   2
     7     6    14   1
     8     6     5   1
     9     5     4   2
    10    14    16   1
    11    14    15   1
    12    14    13   1
    13    13    12   2
    14    13     9   1
    15     9    10   1
    16     9     8   1
    17    10    17   2
    18    17    18   1
    19    16    17   1
    20    12    11   1
    21     3    19   1
    22     4    20   1
    23     5    21   1
    24     8    22   1
    25     8    23   1
    26     9    24   1
    27    10    25   1
    28    11    26   1
    29    11    27   1
    30    11    28   1
    31    12    29   1
    32    15    30   1
    33    15    31   1
    34    15    32   1
    35    16    33   1
    36    16    34   1
    37    18    35   1
    38    18    36   1
    39    18    37   1
@<TRIPOS>SUBSTRUCTURE
     1  HUP      1

