@<TRIPOS>MOLECULE
1gpk_ligand_058
    37    39
SMALL
GAST_HUCK
****
This file was generated by PARSER (from files_GN.cpp)

@<TRIPOS>ATOM
      1 C1          1.4228   64.5757   70.6456 C.2         1 HUP       0.2329
      2 O1          0.4920   65.3560   70.5109 O.2         1 HUP      -0.3876
      3 N1          1.1772   63.3296   71.0445 N.am        1 HUP      -0.1804
      4 C2          2.7059   64.9561   70.3907 C.2         1 HUP       0.0044
      5 C3          3.7029   64.0672   70.5766 C.2         1 HUP      -0.0667
      6 C4          3.4672   62.7801   71.0441 C.2         1 HUP      -0.0119
      7 C5          2.1611   62.4186   71.2152 C.2         1 HUP       0.1279
      8 C6          1.7676   61.0638   71.5990 C.3         1 HUP       0.0575
      9 C7          2.9225   60.0173   71.4982 C.3         1 HUP       0.0028
     10 C8          3.1495   59.6186   70.1036 C.2         1 HUP      -0.0963
     11 C9          4.3207   59.1109   74.0331 C.3         1 HUP      -0.0165
     12 C10         4.7374   60.2248   73.2040 C.2         1 HUP      -0.0578
     13 C11         4.1286   60.6454   72.0710 C.2         1 HUP      -0.0700
     14 C12         4.5791   61.7971   71.2415 C.3         1 HUP      -0.0531
     15 N2          5.7658   62.4843   71.8034 N.4         1 HUP       0.0987
     16 C13         5.0064   61.1967   69.8547 C.3         1 HUP      -0.0479
     17 C14         4.0989   60.1743   69.3181 C.2         1 HUP      -0.0960
     18 C15         4.2584   59.7198   67.9493 C.3         1 HUP      -0.0414
     19 H1          0.2578   63.0645   71.2088 H           1 HUP       0.2789
     20 H2          2.9085   65.8782   70.0756 H           1 HUP       0.0519
     21 H3          4.6282   64.3623   70.3677 H           1 HUP       0.0683
     22 H4          0.9273   60.7372   70.9776 H           1 HUP       0.0669
     23 H5          1.4113   61.1003   72.6328 H           1 HUP       0.0669
     24 H6          2.6119   59.1200   72.0390 H           1 HUP       0.0532
     25 H7          2.5308   58.9429   69.7124 H           1 HUP       0.0261
     26 H8          3.3082   59.2768   74.4063 H           1 HUP       0.0514
     27 H9          4.9855   58.9999   74.8923 H           1 HUP       0.0514
     28 H10         4.3524   58.1820   73.4607 H           1 HUP       0.0514
     29 H11         5.5449   60.7086   73.5150 H           1 HUP       0.1006
     30 H12         6.0906   63.2082   71.1608 H           1 HUP       0.1917
     31 H13         6.5267   61.8214   71.9594 H           1 HUP       0.1917
     32 H14         5.5176   62.9100   72.6948 H           1 HUP       0.1917
     33 H15         5.9933   60.7322   69.9476 H           1 HUP       0.0233
     34 H16         5.1023   62.0094   69.1280 H           1 HUP       0.0233
     35 H17         4.4492   58.6465   67.9301 H           1 HUP       0.0377
     36 H18         5.0857   60.2183   67.4394 H           1 HUP       0.0377
     37 H19         3.3404   59.9296   67.4007 H           1 HUP       0.0377
@<TRIPOS>BOND
     1     4     1   1
     2     1     3  am
     3     1     2   2
     4     3     7   1
     5     7     8   1
     6     7     6   2
     7     6    14   1
     8     6     5   1
     9     5     4   2
    10    14    16   1
    11    14    15   1
    12    14    13   1
    13    13    12   2
    14    13     9   1
    15     9    10   1
    16     9     8   1
    17    10    17   2
    18    17    18   1
    19    16    17   1
    20    12    11   1
    21     3    19   1
    22     4    20   1
    23     5    21   1
    24     8    22   1
    25     8    23   1
    26     9    24   1
    27    10    25   1
    28    11    26   1
    29    11    27   1
    30    11    28   1
    31    12    29   1
    32    15    30   1
    33    15    31   1
    34    15    32   1
    35    16    33   1
    36    16    34   1
    37    18    35   1
    38    18    36   1
    39    18    37   1
@<TRIPOS>SUBSTRUCTURE
     1  HUP      1

