@<TRIPOS>MOLECULE
1gpk_ligand_020
    37    39
SMALL
GAST_HUCK
****
This file was generated by PARSER (from files_GN.cpp)

@<TRIPOS>ATOM
      1 C1          0.3592   69.5686   67.4665 C.2         1 HUP       0.2329
      2 O1         -0.0586   70.2296   68.4064 O.2         1 HUP      -0.3876
      3 N1          1.6478   69.6366   67.1372 N.am        1 HUP      -0.1804
      4 C2         -0.4828   68.7998   66.7202 C.2         1 HUP       0.0044
      5 C3          0.0121   68.1144   65.6688 C.2         1 HUP      -0.0667
      6 C4          1.3461   68.2037   65.2915 C.2         1 HUP      -0.0119
      7 C5          2.1630   68.9527   66.0903 C.2         1 HUP       0.1279
      8 C6          3.5972   69.0854   65.8355 C.3         1 HUP       0.0575
      9 C7          4.1539   68.0732   64.7852 C.3         1 HUP       0.0028
     10 C8          4.3434   66.7463   65.3844 C.2         1 HUP      -0.0963
     11 C9          4.6909   69.0511   61.9643 C.3         1 HUP      -0.0165
     12 C10         3.4413   68.4768   62.4243 C.2         1 HUP      -0.0578
     13 C11         3.1836   68.0244   63.6742 C.2         1 HUP      -0.0700
     14 C12         1.8858   67.4436   64.1199 C.3         1 HUP      -0.0531
     15 N2          0.8734   67.3917   63.0356 N.4         1 HUP       0.0987
     16 C13         2.1886   65.9560   64.5391 C.3         1 HUP      -0.0479
     17 C14         3.4282   65.7555   65.3047 C.2         1 HUP      -0.0960
     18 C15         3.7132   64.4579   65.9031 C.3         1 HUP      -0.0414
     19 H1          2.2376   70.1957   67.6683 H           1 HUP       0.2789
     20 H2         -1.4441   68.7179   66.9646 H           1 HUP       0.0519
     21 H3         -0.6104   67.5259   65.1661 H           1 HUP       0.0683
     22 H4          4.1482   68.9744   66.7740 H           1 HUP       0.0669
     23 H5          3.7792   70.1017   65.4751 H           1 HUP       0.0669
     24 H6          5.1402   68.4241   64.4715 H           1 HUP       0.0532
     25 H7          5.1772   66.5950   65.9079 H           1 HUP       0.0261
     26 H8          4.9390   69.9366   62.5527 H           1 HUP       0.0514
     27 H9          4.6147   69.3503   60.9161 H           1 HUP       0.0514
     28 H10         5.4965   68.3193   62.0488 H           1 HUP       0.0514
     29 H11         2.7214   68.4268   61.7438 H           1 HUP       0.1006
     30 H12         0.0811   66.8140   63.3253 H           1 HUP       0.1917
     31 H13         1.2866   66.9762   62.1989 H           1 HUP       0.1917
     32 H14         0.5489   68.3369   62.8196 H           1 HUP       0.1917
     33 H15         2.2736   65.3393   63.6391 H           1 HUP       0.0233
     34 H16         1.3434   65.5647   65.1142 H           1 HUP       0.0233
     35 H17         4.6350   64.0465   65.4852 H           1 HUP       0.0377
     36 H18         2.9127   63.7377   65.7212 H           1 HUP       0.0377
     37 H19         3.8326   64.5664   66.9832 H           1 HUP       0.0377
@<TRIPOS>BOND
     1     4     1   1
     2     1     3  am
     3     1     2   2
     4     3     7   1
     5     7     8   1
     6     7     6   2
     7     6    14   1
     8     6     5   1
     9     5     4   2
    10    14    16   1
    11    14    15   1
    12    14    13   1
    13    13    12   2
    14    13     9   1
    15     9    10   1
    16     9     8   1
    17    10    17   2
    18    17    18   1
    19    16    17   1
    20    12    11   1
    21     3    19   1
    22     4    20   1
    23     5    21   1
    24     8    22   1
    25     8    23   1
    26     9    24   1
    27    10    25   1
    28    11    26   1
    29    11    27   1
    30    11    28   1
    31    12    29   1
    32    15    30   1
    33    15    31   1
    34    15    32   1
    35    16    33   1
    36    16    34   1
    37    18    35   1
    38    18    36   1
    39    18    37   1
@<TRIPOS>SUBSTRUCTURE
     1  HUP      1

