@<TRIPOS>MOLECULE
1gpk_ligand_002
    37    39
SMALL
GAST_HUCK
****
This file was generated by PARSER (from files_GN.cpp)

@<TRIPOS>ATOM
      1 C1          3.7677   63.3156   64.9506 C.2         1 HUP       0.2329
      2 O1          3.5720   62.3583   65.6861 O.2         1 HUP      -0.3876
      3 N1          2.8804   64.3060   64.9174 N.am        1 HUP      -0.1804
      4 C2          4.8963   63.4049   64.1966 C.2         1 HUP       0.0044
      5 C3          5.0764   64.4844   63.4104 C.2         1 HUP      -0.0667
      6 C4          4.1346   65.5037   63.3149 C.2         1 HUP      -0.0119
      7 C5          3.0479   65.4043   64.1392 C.2         1 HUP       0.1279
      8 C6          2.0358   66.4534   64.2097 C.3         1 HUP       0.0575
      9 C7          2.4523   67.7923   63.5163 C.3         1 HUP       0.0028
     10 C8          3.3789   68.5594   64.3599 C.2         1 HUP      -0.0963
     11 C9          1.3093   68.4348   60.7789 C.3         1 HUP      -0.0165
     12 C10         2.5483   67.7240   61.0178 C.2         1 HUP      -0.0578
     13 C11         3.0799   67.4310   62.2261 C.2         1 HUP      -0.0700
     14 C12         4.3579   66.7000   62.4379 C.3         1 HUP      -0.0531
     15 N2          5.0003   66.2706   61.1738 N.4         1 HUP       0.0987
     16 C13         5.3289   67.7095   63.1513 C.3         1 HUP      -0.0479
     17 C14         4.7206   68.5117   64.2267 C.2         1 HUP      -0.0960
     18 C15         5.5681   69.3105   65.1007 C.3         1 HUP      -0.0414
     19 H1          2.1084   64.2506   65.5030 H           1 HUP       0.2789
     20 H2          5.5830   62.6869   64.2319 H           1 HUP       0.0519
     21 H3          5.9190   64.5339   62.8917 H           1 HUP       0.0683
     22 H4          1.7883   66.6513   65.2612 H           1 HUP       0.0669
     23 H5          1.1331   66.0716   63.7298 H           1 HUP       0.0669
     24 H6          1.5528   68.4004   63.3930 H           1 HUP       0.0532
     25 H7          2.9843   69.0971   65.0995 H           1 HUP       0.0261
     26 H8          0.4726   67.8927   61.2230 H           1 HUP       0.0514
     27 H9          1.1207   68.5285   59.7064 H           1 HUP       0.0514
     28 H10         1.3603   69.4395   61.2011 H           1 HUP       0.0514
     29 H11         3.0367   67.4325   60.2035 H           1 HUP       0.1006
     30 H12         5.9071   65.8441   61.3773 H           1 HUP       0.1917
     31 H13         5.1541   67.0619   60.5402 H           1 HUP       0.1917
     32 H14         4.3946   65.5900   60.7215 H           1 HUP       0.1917
     33 H15         5.7175   68.4137   62.4073 H           1 HUP       0.0233
     34 H16         6.1851   67.1622   63.5528 H           1 HUP       0.0233
     35 H17         5.3005   70.3643   65.0129 H           1 HUP       0.0377
     36 H18         6.6256   69.2100   64.8501 H           1 HUP       0.0377
     37 H19         5.4362   68.9944   66.1377 H           1 HUP       0.0377
@<TRIPOS>BOND
     1     4     1   1
     2     1     3  am
     3     1     2   2
     4     3     7   1
     5     7     8   1
     6     7     6   2
     7     6    14   1
     8     6     5   1
     9     5     4   2
    10    14    16   1
    11    14    15   1
    12    14    13   1
    13    13    12   2
    14    13     9   1
    15     9    10   1
    16     9     8   1
    17    10    17   2
    18    17    18   1
    19    16    17   1
    20    12    11   1
    21     3    19   1
    22     4    20   1
    23     5    21   1
    24     8    22   1
    25     8    23   1
    26     9    24   1
    27    10    25   1
    28    11    26   1
    29    11    27   1
    30    11    28   1
    31    12    29   1
    32    15    30   1
    33    15    31   1
    34    15    32   1
    35    16    33   1
    36    16    34   1
    37    18    35   1
    38    18    36   1
    39    18    37   1
@<TRIPOS>SUBSTRUCTURE
     1  HUP      1

