@<TRIPOS>MOLECULE
1gpk_ligand_028
    37    39
SMALL
GAST_HUCK
****
This file was generated by PARSER (from files_GN.cpp)

@<TRIPOS>ATOM
      1 C1          0.0873   64.9567   71.7359 C.2         1 HUP       0.2329
      2 O1         -0.5599   65.8378   72.2820 O.2         1 HUP      -0.3876
      3 N1          1.0511   65.2948   70.8823 N.am        1 HUP      -0.1804
      4 C2         -0.1435   63.6381   71.9952 C.2         1 HUP       0.0044
      5 C3          0.5925   62.7054   71.3541 C.2         1 HUP      -0.0667
      6 C4          1.5577   63.0459   70.4146 C.2         1 HUP      -0.0119
      7 C5          1.8172   64.3763   70.2558 C.2         1 HUP       0.1279
      8 C6          2.8969   64.8662   69.4047 C.3         1 HUP       0.0575
      9 C7          3.8577   63.7516   68.8793 C.3         1 HUP       0.0028
     10 C8          4.8347   63.3527   69.9023 C.2         1 HUP      -0.0963
     11 C9          3.4198   62.8069   66.0226 C.3         1 HUP      -0.0165
     12 C10         2.8458   62.1971   67.2055 C.2         1 HUP      -0.0578
     13 C11         3.0111   62.6118   68.4845 C.2         1 HUP      -0.0700
     14 C12         2.3368   62.0113   69.6681 C.3         1 HUP      -0.0531
     15 N2          1.4385   60.8934   69.3012 N.4         1 HUP       0.0987
     16 C13         3.4796   61.4302   70.5787 C.3         1 HUP      -0.0479
     17 C14         4.6707   62.2825   70.7133 C.2         1 HUP      -0.0960
     18 C15         5.7363   61.8837   71.6223 C.3         1 HUP      -0.0414
     19 H1          1.2136   66.2360   70.7102 H           1 HUP       0.2789
     20 H2         -0.8324   63.3666   72.6627 H           1 HUP       0.0519
     21 H3          0.4343   61.7528   71.5862 H           1 HUP       0.0683
     22 H4          3.4719   65.6132   69.9579 H           1 HUP       0.0669
     23 H5          2.4390   65.3714   68.5486 H           1 HUP       0.0669
     24 H6          4.4253   64.1617   68.0408 H           1 HUP       0.0532
     25 H7          5.6485   63.9173   70.0036 H           1 HUP       0.0261
     26 H8          3.1043   63.8481   65.9436 H           1 HUP       0.0514
     27 H9          3.0963   62.2844   65.1201 H           1 HUP       0.0514
     28 H10         4.5079   62.7614   66.0634 H           1 HUP       0.0514
     29 H11         2.2570   61.4178   67.0370 H           1 HUP       0.1006
     30 H12         1.0588   60.4539   70.1418 H           1 HUP       0.1917
     31 H13         1.9584   60.1923   68.7673 H           1 HUP       0.1917
     32 H14         0.6738   61.2580   68.7294 H           1 HUP       0.1917
     33 H15         3.8215   60.4787   70.1575 H           1 HUP       0.0233
     34 H16         3.0770   61.2166   71.5747 H           1 HUP       0.0233
     35 H17         6.6110   61.5799   71.0452 H           1 HUP       0.0377
     36 H18         5.4430   61.0423   72.2528 H           1 HUP       0.0377
     37 H19         6.0173   62.7110   72.2767 H           1 HUP       0.0377
@<TRIPOS>BOND
     1     4     1   1
     2     1     3  am
     3     1     2   2
     4     3     7   1
     5     7     8   1
     6     7     6   2
     7     6    14   1
     8     6     5   1
     9     5     4   2
    10    14    16   1
    11    14    15   1
    12    14    13   1
    13    13    12   2
    14    13     9   1
    15     9    10   1
    16     9     8   1
    17    10    17   2
    18    17    18   1
    19    16    17   1
    20    12    11   1
    21     3    19   1
    22     4    20   1
    23     5    21   1
    24     8    22   1
    25     8    23   1
    26     9    24   1
    27    10    25   1
    28    11    26   1
    29    11    27   1
    30    11    28   1
    31    12    29   1
    32    15    30   1
    33    15    31   1
    34    15    32   1
    35    16    33   1
    36    16    34   1
    37    18    35   1
    38    18    36   1
    39    18    37   1
@<TRIPOS>SUBSTRUCTURE
     1  HUP      1

