@<TRIPOS>MOLECULE
1gpk_ligand_044
    37    39
SMALL
GAST_HUCK
****
This file was generated by PARSER (from files_GN.cpp)

@<TRIPOS>ATOM
      1 C1          2.2036   58.9296   74.9182 C.2         1 HUP       0.2329
      2 O1          2.7177   58.3020   75.8316 O.2         1 HUP      -0.3876
      3 N1          2.5610   60.1953   74.7147 N.am        1 HUP      -0.1804
      4 C2          1.2863   58.3517   74.0926 C.2         1 HUP       0.0044
      5 C3          0.7410   59.0859   73.1003 C.2         1 HUP      -0.0667
      6 C4          1.0660   60.4227   72.9087 C.2         1 HUP      -0.0119
      7 C5          2.0398   60.9388   73.7144 C.2         1 HUP       0.1279
      8 C6          2.5521   62.2968   73.5480 C.3         1 HUP       0.0575
      9 C7          2.1157   62.9818   72.2160 C.3         1 HUP       0.0028
     10 C8          2.9174   62.4928   71.0858 C.2         1 HUP      -0.0963
     11 C9         -0.1179   65.0426   72.2806 C.3         1 HUP      -0.0165
     12 C10        -0.2960   63.6196   72.0597 C.2         1 HUP      -0.0578
     13 C11         0.6840   62.6858   72.0255 C.2         1 HUP      -0.0700
     14 C12         0.4665   61.2300   71.8008 C.3         1 HUP      -0.0531
     15 N2         -0.9673   60.8817   71.6544 N.4         1 HUP       0.0987
     16 C13         1.1865   60.8901   70.4431 C.3         1 HUP      -0.0479
     17 C14         2.5145   61.4973   70.2648 C.2         1 HUP      -0.0960
     18 C15         3.3633   61.0798   69.1563 C.3         1 HUP      -0.0414
     19 H1          3.2279   60.5955   75.2962 H           1 HUP       0.2789
     20 H2          1.0351   57.3957   74.2041 H           1 HUP       0.0519
     21 H3          0.1012   58.6346   72.4895 H           1 HUP       0.0683
     22 H4          3.6447   62.2773   73.6026 H           1 HUP       0.0669
     23 H5          2.1895   62.8964   74.3883 H           1 HUP       0.0669
     24 H6          2.3115   64.0494   72.3099 H           1 HUP       0.0532
     25 H7          3.8243   62.8864   70.9639 H           1 HUP       0.0261
     26 H8          0.3496   65.2208   73.2513 H           1 HUP       0.0514
     27 H9         -1.0822   65.5573   72.2679 H           1 HUP       0.0514
     28 H10         0.5030   65.4705   71.4918 H           1 HUP       0.0514
     29 H11        -1.2346   63.3267   71.9244 H           1 HUP       0.1006
     30 H12        -1.0574   59.8958   71.4099 H           1 HUP       0.1917
     31 H13        -1.3882   61.4463   70.9127 H           1 HUP       0.1917
     32 H14        -1.4567   61.0587   72.5351 H           1 HUP       0.1917
     33 H15         0.5663   61.2387   69.6114 H           1 HUP       0.0233
     34 H16         1.2753   59.8041   70.3479 H           1 HUP       0.0233
     35 H17         3.5724   61.9301   68.5039 H           1 HUP       0.0377
     36 H18         2.8922   60.3012   68.5524 H           1 HUP       0.0377
     37 H19         4.3073   60.6864   69.5391 H           1 HUP       0.0377
@<TRIPOS>BOND
     1     4     1   1
     2     1     3  am
     3     1     2   2
     4     3     7   1
     5     7     8   1
     6     7     6   2
     7     6    14   1
     8     6     5   1
     9     5     4   2
    10    14    16   1
    11    14    15   1
    12    14    13   1
    13    13    12   2
    14    13     9   1
    15     9    10   1
    16     9     8   1
    17    10    17   2
    18    17    18   1
    19    16    17   1
    20    12    11   1
    21     3    19   1
    22     4    20   1
    23     5    21   1
    24     8    22   1
    25     8    23   1
    26     9    24   1
    27    10    25   1
    28    11    26   1
    29    11    27   1
    30    11    28   1
    31    12    29   1
    32    15    30   1
    33    15    31   1
    34    15    32   1
    35    16    33   1
    36    16    34   1
    37    18    35   1
    38    18    36   1
    39    18    37   1
@<TRIPOS>SUBSTRUCTURE
     1  HUP      1

