@<TRIPOS>MOLECULE
1gpk_ligand_055
    37    39
SMALL
GAST_HUCK
****
This file was generated by PARSER (from files_GN.cpp)

@<TRIPOS>ATOM
      1 C1          4.1071   63.7857   66.0389 C.2         1 HUP       0.2329
      2 O1          4.5651   64.4813   65.1448 O.2         1 HUP      -0.3876
      3 N1          4.3593   64.1041   67.3056 N.am        1 HUP      -0.1804
      4 C2          3.3385   62.6962   65.7661 C.2         1 HUP       0.0044
      5 C3          2.8696   61.9551   66.7909 C.2         1 HUP      -0.0667
      6 C4          3.1659   62.2449   68.1132 C.2         1 HUP      -0.0119
      7 C5          3.8804   63.3850   68.3450 C.2         1 HUP       0.1279
      8 C6          4.1719   63.8597   69.6966 C.3         1 HUP       0.0575
      9 C7          3.3482   63.1394   70.8103 C.3         1 HUP       0.0028
     10 C8          1.9743   63.6558   70.8643 C.2         1 HUP      -0.0963
     11 C9          4.7112   61.0115   72.4934 C.3         1 HUP      -0.0165
     12 C10         3.9806   60.7650   71.2639 C.2         1 HUP      -0.0578
     13 C11         3.3655   61.6980   70.4998 C.2         1 HUP      -0.0700
     14 C12         2.6287   61.4152   69.2370 C.3         1 HUP      -0.0531
     15 N2          2.6589   59.9798   68.8611 N.4         1 HUP       0.0987
     16 C13         1.1287   61.8022   69.5143 C.3         1 HUP      -0.0479
     17 C14         0.9316   63.0637   70.2426 C.2         1 HUP      -0.0960
     18 C15        -0.4030   63.6342   70.3615 C.3         1 HUP      -0.0414
     19 H1          4.9015   64.8842   67.4846 H           1 HUP       0.2789
     20 H2          3.1079   62.4585   64.8271 H           1 HUP       0.0519
     21 H3          2.2764   61.1906   66.5754 H           1 HUP       0.0683
     22 H4          3.9848   64.9359   69.7574 H           1 HUP       0.0669
     23 H5          5.2394   63.7038   69.8810 H           1 HUP       0.0669
     24 H6          3.8113   63.3662   71.7701 H           1 HUP       0.0532
     25 H7          1.8252   64.5159   71.3409 H           1 HUP       0.0261
     26 H8          5.5478   61.6881   72.3081 H           1 HUP       0.0514
     27 H9          5.1124   60.0780   72.8949 H           1 HUP       0.0514
     28 H10         4.0509   61.4472   73.2458 H           1 HUP       0.0514
     29 H11         3.9451   59.8165   70.9744 H           1 HUP       0.1006
     30 H12         2.0526   59.8156   68.0563 H           1 HUP       0.1917
     31 H13         2.3260   59.4114   69.6428 H           1 HUP       0.1917
     32 H14         3.6149   59.7076   68.6236 H           1 HUP       0.1917
     33 H15         0.6590   61.0158   70.1137 H           1 HUP       0.0233
     34 H16         0.5884   61.8501   68.5639 H           1 HUP       0.0233
     35 H17        -0.6892   63.7030   71.4138 H           1 HUP       0.0377
     36 H18        -1.1530   63.0282   69.8479 H           1 HUP       0.0377
     37 H19        -0.4189   64.6349   69.9244 H           1 HUP       0.0377
@<TRIPOS>BOND
     1     4     1   1
     2     1     3  am
     3     1     2   2
     4     3     7   1
     5     7     8   1
     6     7     6   2
     7     6    14   1
     8     6     5   1
     9     5     4   2
    10    14    16   1
    11    14    15   1
    12    14    13   1
    13    13    12   2
    14    13     9   1
    15     9    10   1
    16     9     8   1
    17    10    17   2
    18    17    18   1
    19    16    17   1
    20    12    11   1
    21     3    19   1
    22     4    20   1
    23     5    21   1
    24     8    22   1
    25     8    23   1
    26     9    24   1
    27    10    25   1
    28    11    26   1
    29    11    27   1
    30    11    28   1
    31    12    29   1
    32    15    30   1
    33    15    31   1
    34    15    32   1
    35    16    33   1
    36    16    34   1
    37    18    35   1
    38    18    36   1
    39    18    37   1
@<TRIPOS>SUBSTRUCTURE
     1  HUP      1

