@<TRIPOS>MOLECULE
1gpk_ligand_001
    37    39
SMALL
GAST_HUCK
****
This file was generated by PARSER (from files_GN.cpp)

@<TRIPOS>ATOM
      1 C1          4.7859   70.5494   66.9681 C.2         1 HUP       0.2329
      2 O1          5.9591   70.8670   66.8569 O.2         1 HUP      -0.3876
      3 N1          4.2234   69.8218   66.0068 N.am        1 HUP      -0.1804
      4 C2          4.0575   70.9067   68.0575 C.2         1 HUP       0.0044
      5 C3          2.7709   70.4990   68.1473 C.2         1 HUP      -0.0667
      6 C4          2.1742   69.7157   67.1720 C.2         1 HUP      -0.0119
      7 C5          2.9507   69.3710   66.0973 C.2         1 HUP       0.1279
      8 C6          2.4685   68.4744   65.0422 C.3         1 HUP       0.0575
      9 C7          1.2683   67.5801   65.4968 C.3         1 HUP       0.0028
     10 C8          1.7203   66.5357   66.4329 C.2         1 HUP      -0.0963
     11 C9         -1.4541   68.3004   64.3563 C.3         1 HUP      -0.0165
     12 C10        -0.8883   68.8547   65.5700 C.2         1 HUP      -0.0578
     13 C11         0.3014   68.5070   66.1221 C.2         1 HUP      -0.0700
     14 C12         0.8444   69.0689   67.3879 C.3         1 HUP      -0.0531
     15 N2         -0.0768   70.0176   68.0582 N.4         1 HUP       0.0987
     16 C13         1.0313   67.8566   68.3610 C.3         1 HUP      -0.0479
     17 C14         1.6861   66.6838   67.7707 C.2         1 HUP      -0.0960
     18 C15         2.2198   65.6455   68.6448 C.3         1 HUP      -0.0414
     19 H1          4.7542   69.5689   65.2296 H           1 HUP       0.2789
     20 H2          4.4554   71.4480   68.7802 H           1 HUP       0.0519
     21 H3          2.2580   70.7518   68.9572 H           1 HUP       0.0683
     22 H4          3.2814   67.8294   64.6870 H           1 HUP       0.0669
     23 H5          2.1611   69.1008   64.1975 H           1 HUP       0.0669
     24 H6          0.8636   67.0834   64.6119 H           1 HUP       0.0532
     25 H7          2.1648   65.7408   66.0390 H           1 HUP       0.0261
     26 H8         -0.7898   68.4726   63.5117 H           1 HUP       0.0514
     27 H9         -2.4177   68.7596   64.1282 H           1 HUP       0.0514
     28 H10        -1.6139   67.2294   64.4831 H           1 HUP       0.0514
     29 H11        -1.4464   69.5405   66.0193 H           1 HUP       0.1006
     30 H12         0.1418   70.0414   69.0534 H           1 HUP       0.1917
     31 H13        -1.0454   69.7183   67.9507 H           1 HUP       0.1917
     32 H14         0.0298   70.9614   67.6821 H           1 HUP       0.1917
     33 H15         0.0623   67.5238   68.7260 H           1 HUP       0.0233
     34 H16         1.6053   68.1819   69.2300 H           1 HUP       0.0233
     35 H17         1.6267   64.7436   68.5609 H           1 HUP       0.0377
     36 H18         2.2110   65.9445   69.6912 H           1 HUP       0.0377
     37 H19         3.2463   65.4062   68.3846 H           1 HUP       0.0377
@<TRIPOS>BOND
     1     4     1   1
     2     1     3  am
     3     1     2   2
     4     3     7   1
     5     7     8   1
     6     7     6   2
     7     6    14   1
     8     6     5   1
     9     5     4   2
    10    14    16   1
    11    14    15   1
    12    14    13   1
    13    13    12   2
    14    13     9   1
    15     9    10   1
    16     9     8   1
    17    10    17   2
    18    17    18   1
    19    16    17   1
    20    12    11   1
    21     3    19   1
    22     4    20   1
    23     5    21   1
    24     8    22   1
    25     8    23   1
    26     9    24   1
    27    10    25   1
    28    11    26   1
    29    11    27   1
    30    11    28   1
    31    12    29   1
    32    15    30   1
    33    15    31   1
    34    15    32   1
    35    16    33   1
    36    16    34   1
    37    18    35   1
    38    18    36   1
    39    18    37   1
@<TRIPOS>SUBSTRUCTURE
     1  HUP      1

