@<TRIPOS>MOLECULE
1gpk_ligand_064
    37    39
SMALL
GAST_HUCK
****
This file was generated by PARSER (from files_GN.cpp)

@<TRIPOS>ATOM
      1 C1          5.8488   61.2381   72.7693 C.2         1 HUP       0.2329
      2 O1          6.6695   61.9274   73.3600 O.2         1 HUP      -0.3876
      3 N1          4.5904   61.1896   73.1981 N.am        1 HUP      -0.1804
      4 C2          6.1967   60.5707   71.6330 C.2         1 HUP       0.0044
      5 C3          5.2487   59.8696   70.9751 C.2         1 HUP      -0.0667
      6 C4          3.9483   59.7581   71.4422 C.2         1 HUP      -0.0119
      7 C5          3.6288   60.4887   72.5496 C.2         1 HUP       0.1279
      8 C6          2.2606   60.5712   73.0664 C.3         1 HUP       0.0575
      9 C7          1.1866   60.0007   72.0873 C.3         1 HUP       0.0028
     10 C8          0.8957   60.9643   71.0198 C.2         1 HUP      -0.0963
     11 C9          0.0508   57.2587   72.6725 C.3         1 HUP      -0.0165
     12 C10         1.1867   57.5220   71.8102 C.2         1 HUP      -0.0578
     13 C11         1.7198   58.7384   71.5403 C.2         1 HUP      -0.0700
     14 C12         2.9160   58.9765   70.6880 C.3         1 HUP      -0.0531
     15 N2          3.5160   57.7244   70.1616 N.4         1 HUP       0.0987
     16 C13         2.4194   59.8370   69.4661 C.3         1 HUP      -0.0479
     17 C14         1.4870   60.9253   69.8043 C.2         1 HUP      -0.0960
     18 C15         1.1540   61.9334   68.8066 C.3         1 HUP      -0.0414
     19 H1          4.3483   61.6988   73.9900 H           1 HUP       0.2789
     20 H2          7.1186   60.6287   71.2645 H           1 HUP       0.0519
     21 H3          5.5014   59.4634   70.1078 H           1 HUP       0.0683
     22 H4          2.0202   61.6142   73.3029 H           1 HUP       0.0669
     23 H5          2.2214   60.0095   74.0042 H           1 HUP       0.0669
     24 H6          0.2584   59.8634   72.6480 H           1 HUP       0.0532
     25 H7          0.2807   61.7188   71.2351 H           1 HUP       0.0261
     26 H8          0.2514   57.6083   73.6867 H           1 HUP       0.0514
     27 H9         -0.1576   56.1876   72.7204 H           1 HUP       0.0514
     28 H10        -0.8408   57.7565   72.2902 H           1 HUP       0.0514
     29 H11         1.6057   56.7244   71.4019 H           1 HUP       0.1006
     30 H12         4.3372   57.9647   69.6078 H           1 HUP       0.1917
     31 H13         2.8477   57.2328   69.5625 H           1 HUP       0.1917
     32 H14         3.8013   57.1204   70.9391 H           1 HUP       0.1917
     33 H15         1.9074   59.1892   68.7505 H           1 HUP       0.0233
     34 H16         3.2794   60.2629   68.9386 H           1 HUP       0.0233
     35 H17         0.0735   61.9600   68.6336 H           1 HUP       0.0377
     36 H18         1.6413   61.7341   67.8472 H           1 HUP       0.0377
     37 H19         1.4785   62.9190   69.1533 H           1 HUP       0.0377
@<TRIPOS>BOND
     1     4     1   1
     2     1     3  am
     3     1     2   2
     4     3     7   1
     5     7     8   1
     6     7     6   2
     7     6    14   1
     8     6     5   1
     9     5     4   2
    10    14    16   1
    11    14    15   1
    12    14    13   1
    13    13    12   2
    14    13     9   1
    15     9    10   1
    16     9     8   1
    17    10    17   2
    18    17    18   1
    19    16    17   1
    20    12    11   1
    21     3    19   1
    22     4    20   1
    23     5    21   1
    24     8    22   1
    25     8    23   1
    26     9    24   1
    27    10    25   1
    28    11    26   1
    29    11    27   1
    30    11    28   1
    31    12    29   1
    32    15    30   1
    33    15    31   1
    34    15    32   1
    35    16    33   1
    36    16    34   1
    37    18    35   1
    38    18    36   1
    39    18    37   1
@<TRIPOS>SUBSTRUCTURE
     1  HUP      1

