@<TRIPOS>MOLECULE
1h23_ligand_051
    84    87
SMALL
GAST_HUCK
****
This file was generated by PARSER (from files_GN.cpp)

@<TRIPOS>ATOM
      1 C1          0.6643   61.9108   76.9302 C.2         1 E12       0.1811
      2 N2          1.7288   61.8438   76.1335 N.am        1 E12      -0.2230
      3 O7          0.7712   62.4347   78.0306 O.2         1 E12      -0.4310
      4 C4          0.4977   60.7985   74.4345 C.2         1 E12       0.0225
      5 C5         -0.5853   60.8026   75.2941 C.2         1 E12      -0.0779
      6 C14         2.9296   60.1142   73.0501 C.3         1 E12      -0.0310
      7 N17        -0.8181   60.7197   72.2847 N.4         1 E12       0.2346
      8 C24        -1.3359   62.1162   72.3329 C.3         1 E12      -0.0329
      9 C6         -0.5188   61.3720   76.5132 C.2         1 E12      -0.0278
     10 C9          2.9496   61.1627   74.1887 C.3         1 E12       0.0189
     11 C10         0.3565   60.2330   73.0821 C.3         1 E12      -0.0032
     12 C13         1.6483   60.2937   72.2064 C.3         1 E12      -0.0041
     13 C63        -0.3337   63.2495   71.9913 C.3         1 E12      -0.0126
     14 C29         2.5163   68.4588   60.8056 C.2         1 E12       0.1811
     15 C3          1.6878   61.2628   74.9144 C.2         1 E12       0.0883
     16 N30         3.8248   68.2559   60.9537 N.am        1 E12      -0.2230
     17 C31         4.4536   68.4202   62.1385 C.2         1 E12       0.0883
     18 C32         3.7502   68.8549   63.2204 C.2         1 E12       0.0225
     19 C33         2.3887   69.0622   63.0610 C.2         1 E12      -0.0779
     20 C34         1.7773   68.8681   61.8771 C.2         1 E12      -0.0278
     21 O35         2.0088   68.3032   59.7068 O.2         1 E12      -0.4310
     22 C36         5.8916   68.1969   62.1374 C.3         1 E12       0.0189
     23 C37         4.3892   69.1497   64.5182 C.3         1 E12      -0.0032
     24 C38         5.9508   69.0748   64.5246 C.3         1 E12      -0.0041
     25 C39         6.5054   68.0193   63.5431 C.3         1 E12      -0.0310
     26 N40         3.7930   68.4034   65.6589 N.4         1 E12       0.2346
     27 C41         3.8460   66.9206   65.6490 C.3         1 E12      -0.0329
     28 C64         0.1414   63.2334   70.5091 C.3         1 E12      -0.0483
     29 C65         1.4704   64.0263   70.2622 C.3         1 E12      -0.0529
     30 C66         2.5465   63.2952   69.3815 C.3         1 E12      -0.0531
     31 C67         3.9205   62.9828   70.0502 C.3         1 E12      -0.0531
     32 C68         4.7729   64.1838   70.5705 C.3         1 E12      -0.0531
     33 C69         5.7692   64.8451   69.5752 C.3         1 E12      -0.0531
     34 C70         5.2508   65.2745   68.1737 C.3         1 E12      -0.0529
     35 C71         4.1415   66.3717   68.1828 C.3         1 E12      -0.0483
     36 C72         3.2093   66.3501   66.9368 C.3         1 E12      -0.0126
     37 H1          2.5734   62.2074   76.4453 H           1 E12       0.2526
     38 H2         -1.4435   60.3851   75.0155 H           1 E12       0.0600
     39 H3          3.8137   60.2344   72.4156 H           1 E12       0.0298
     40 H4          2.9481   59.1043   73.4715 H           1 E12       0.0298
     41 H5         -1.6099   60.1306   72.5568 H           1 E12       0.2022
     42 H6         -0.6162   60.5097   71.3058 H           1 E12       0.2022
     43 H7         -1.7606   62.3111   73.3196 H           1 E12       0.0814
     44 H8         -2.1662   62.1731   71.6214 H           1 E12       0.0814
     45 H9         -1.3159   61.3770   77.1111 H           1 E12       0.0298
     46 H10         3.7472   60.8777   74.8803 H           1 E12       0.0511
     47 H11         3.1948   62.1452   73.7760 H           1 E12       0.0511
     48 H12         0.1669   59.1661   73.2305 H           1 E12       0.0913
     49 H13         1.7170   61.2581   71.7137 H           1 E12       0.0333
     50 H14         1.6137   59.5260   71.4271 H           1 E12       0.0333
     51 H15         0.5150   63.1663   72.6730 H           1 E12       0.0317
     52 H16        -0.8165   64.2116   72.1900 H           1 E12       0.0317
     53 H17         4.3530   67.9926   60.1832 H           1 E12       0.2526
     54 H18         1.8407   69.3816   63.8278 H           1 E12       0.0600
     55 H19         0.7992   69.0411   61.7803 H           1 E12       0.0298
     56 H20         6.3680   69.0468   61.6435 H           1 E12       0.0511
     57 H21         6.1252   67.2960   61.5634 H           1 E12       0.0511
     58 H22         4.1551   70.1929   64.7414 H           1 E12       0.0913
     59 H23         6.3213   68.8502   65.5274 H           1 E12       0.0333
     60 H24         6.3571   70.0500   64.2395 H           1 E12       0.0333
     61 H25         7.5914   68.1104   63.4815 H           1 E12       0.0298
     62 H26         6.2840   67.0138   63.9010 H           1 E12       0.0298
     63 H27         4.2500   68.7318   66.5147 H           1 E12       0.2022
     64 H28         2.8077   68.6742   65.7219 H           1 E12       0.2022
     65 H29         3.2867   66.5473   64.7875 H           1 E12       0.0814
     66 H30         4.8738   66.5741   65.5718 H           1 E12       0.0814
     67 H31        -0.6517   63.6631   69.8893 H           1 E12       0.0267
     68 H32         0.2499   62.1966   70.1862 H           1 E12       0.0267
     69 H33         1.9209   64.2894   71.2226 H           1 E12       0.0265
     70 H34         1.2120   64.9772   69.7783 H           1 E12       0.0265
     71 H35         2.7302   63.8882   68.4924 H           1 E12       0.0265
     72 H36         2.1491   62.3411   69.0181 H           1 E12       0.0265
     73 H37         4.5280   62.4092   69.3403 H           1 E12       0.0265
     74 H38         3.7103   62.3293   70.8985 H           1 E12       0.0265
     75 H39         5.3782   63.8138   71.4034 H           1 E12       0.0265
     76 H40         4.1205   64.9490   70.9871 H           1 E12       0.0265
     77 H41         6.6009   64.1519   69.4140 H           1 E12       0.0265
     78 H42         6.1849   65.7322   70.0614 H           1 E12       0.0265
     79 H43         4.9070   64.3812   67.6460 H           1 E12       0.0265
     80 H44         6.1081   65.6596   67.6101 H           1 E12       0.0265
     81 H45         4.6063   67.3575   68.2720 H           1 E12       0.0267
     82 H46         3.5062   66.2357   69.0585 H           1 E12       0.0267
     83 H47         2.3113   66.9267   67.1654 H           1 E12       0.0317
     84 H48         2.8828   65.3282   66.7419 H           1 E12       0.0317
@<TRIPOS>BOND
     1     1     9   1
     2     1     3   2
     3     1     2  am
     4     2    15   1
     5    15    10   1
     6    15     4   2
     7     4    11   1
     8     4     5   1
     9     5     9   2
    10    11     7   1
    11    11    12   1
    12    12     6   1
    13     6    10   1
    14     7     8   1
    15     8    13   1
    16    13    28   1
    17    28    29   1
    18    29    30   1
    19    30    31   1
    20    31    32   1
    21    32    33   1
    22    33    34   1
    23    34    35   1
    24    35    36   1
    25    36    27   1
    26    27    26   1
    27    26    23   1
    28    23    24   1
    29    23    18   1
    30    18    19   1
    31    18    17   2
    32    17    22   1
    33    17    16   1
    34    16    14  am
    35    14    20   1
    36    14    21   2
    37    20    19   2
    38    22    25   1
    39    25    24   1
    40     2    37   1
    41     5    38   1
    42     6    39   1
    43     6    40   1
    44     7    41   1
    45     7    42   1
    46     8    43   1
    47     8    44   1
    48     9    45   1
    49    10    46   1
    50    10    47   1
    51    11    48   1
    52    12    49   1
    53    12    50   1
    54    13    51   1
    55    13    52   1
    56    16    53   1
    57    19    54   1
    58    20    55   1
    59    22    56   1
    60    22    57   1
    61    23    58   1
    62    24    59   1
    63    24    60   1
    64    25    61   1
    65    25    62   1
    66    26    63   1
    67    26    64   1
    68    27    65   1
    69    27    66   1
    70    28    67   1
    71    28    68   1
    72    29    69   1
    73    29    70   1
    74    30    71   1
    75    30    72   1
    76    31    73   1
    77    31    74   1
    78    32    75   1
    79    32    76   1
    80    33    77   1
    81    33    78   1
    82    34    79   1
    83    34    80   1
    84    35    81   1
    85    35    82   1
    86    36    83   1
    87    36    84   1
@<TRIPOS>SUBSTRUCTURE
     1  E12      1

