@<TRIPOS>MOLECULE
1h23_ligand_056
    84    87
SMALL
GAST_HUCK
****
This file was generated by PARSER (from files_GN.cpp)

@<TRIPOS>ATOM
      1 C1          4.1445   63.2060   69.1570 C.2         1 E12       0.1811
      2 N2          4.8206   64.2870   68.7719 N.am        1 E12      -0.2230
      3 O7          4.2069   62.8468   70.3248 O.2         1 E12      -0.4310
      4 C4          4.1240   64.0402   66.5464 C.2         1 E12       0.0225
      5 C5          3.3913   62.9408   66.9591 C.2         1 E12      -0.0779
      6 C14         5.5014   66.4977   65.8101 C.3         1 E12      -0.0310
      7 N17         2.8551   64.6112   64.4742 N.4         1 E12       0.2346
      8 C24         1.9070   65.6300   64.9972 C.3         1 E12      -0.0329
      9 C6          3.4115   62.5158   68.2392 C.2         1 E12      -0.0278
     10 C9          5.6988   65.8593   67.2066 C.3         1 E12       0.0189
     11 C10         4.1871   64.3672   65.1112 C.3         1 E12      -0.0032
     12 C13         5.2681   65.4232   64.7219 C.3         1 E12      -0.0041
     13 C63         2.0854   67.0286   64.3464 C.3         1 E12      -0.0126
     14 C29         3.8760   57.5362   70.9122 C.2         1 E12       0.1811
     15 C3          4.8253   64.7312   67.4949 C.2         1 E12       0.0883
     16 N30         3.8786   57.8294   72.2117 N.am        1 E12      -0.2230
     17 C31         3.2341   58.9076   72.7165 C.2         1 E12       0.0883
     18 C32         2.4924   59.6993   71.8886 C.2         1 E12       0.0225
     19 C33         2.5158   59.3955   70.5363 C.2         1 E12      -0.0779
     20 C34         3.1918   58.3359   70.0507 C.2         1 E12      -0.0278
     21 O35         4.4958   56.5551   70.5194 O.2         1 E12      -0.4310
     22 C36         3.3906   59.1650   74.1425 C.3         1 E12       0.0189
     23 C37         1.8097   60.9259   72.3530 C.3         1 E12      -0.0032
     24 C38         1.8182   61.1275   73.9032 C.3         1 E12      -0.0041
     25 C39         3.1400   60.6423   74.5323 C.3         1 E12      -0.0310
     26 N40         0.3935   60.9874   71.8702 N.4         1 E12       0.2346
     27 C41        -0.1954   62.3281   71.5963 C.3         1 E12      -0.0329
     28 C64         1.0801   68.1128   64.8373 C.3         1 E12      -0.0483
     29 C65         0.8303   68.2090   66.3724 C.3         1 E12      -0.0529
     30 C66         2.0731   68.5895   67.2248 C.3         1 E12      -0.0531
     31 C67         1.8221   68.7286   68.7563 C.3         1 E12      -0.0531
     32 C68         1.8161   67.4088   69.5914 C.3         1 E12      -0.0531
     33 C69         0.4465   66.6783   69.7006 C.3         1 E12      -0.0531
     34 C70         0.3993   65.5626   70.7879 C.3         1 E12      -0.0529
     35 C71         1.1832   64.2529   70.4371 C.3         1 E12      -0.0483
     36 C72         0.3063   62.9775   70.2649 C.3         1 E12      -0.0126
     37 H1          5.3398   64.7684   69.4344 H           1 E12       0.2526
     38 H2          2.8598   62.4186   66.3010 H           1 E12       0.0600
     39 H3          4.6463   67.1707   65.8548 H           1 E12       0.0298
     40 H4          6.3824   67.0940   65.5540 H           1 E12       0.0298
     41 H5          2.3547   63.7201   64.5165 H           1 E12       0.2022
     42 H6          3.0197   64.8118   63.4849 H           1 E12       0.2022
     43 H7          1.9825   65.6981   66.0837 H           1 E12       0.0814
     44 H8          0.8974   65.2805   64.7658 H           1 E12       0.0814
     45 H9          2.8977   61.7058   68.5006 H           1 E12       0.0298
     46 H10         6.7363   65.5247   67.3065 H           1 E12       0.0511
     47 H11         5.5314   66.6410   67.9561 H           1 E12       0.0511
     48 H12         4.5221   63.4473   64.6239 H           1 E12       0.0913
     49 H13         5.0085   65.9079   63.7789 H           1 E12       0.0333
     50 H14         6.2179   64.9030   64.5669 H           1 E12       0.0333
     51 H15         1.9684   66.9245   63.2645 H           1 E12       0.0317
     52 H16         3.0972   67.3907   64.5236 H           1 E12       0.0317
     53 H17         4.3840   57.2552   72.8090 H           1 E12       0.2526
     54 H18         2.0219   59.9685   69.8903 H           1 E12       0.0600
     55 H19         3.1884   58.1485   69.0730 H           1 E12       0.0298
     56 H20         4.4036   58.9030   74.4607 H           1 E12       0.0511
     57 H21         2.6924   58.5224   74.6848 H           1 E12       0.0511
     58 H22         2.3732   61.7547   71.9162 H           1 E12       0.0913
     59 H23         0.9936   60.5673   74.3561 H           1 E12       0.0333
     60 H24         1.6764   62.1857   74.1419 H           1 E12       0.0333
     61 H25         3.9651   61.2656   74.1739 H           1 E12       0.0298
     62 H26         3.0897   60.7346   75.6198 H           1 E12       0.0298
     63 H27         0.3150   60.4554   71.0035 H           1 E12       0.2022
     64 H28        -0.1995   60.5160   72.5587 H           1 E12       0.2022
     65 H29        -1.2750   62.1780   71.5156 H           1 E12       0.0814
     66 H30        -0.0345   62.9952   72.4484 H           1 E12       0.0814
     67 H31         0.1169   67.9263   64.3539 H           1 E12       0.0267
     68 H32         1.4346   69.0846   64.4744 H           1 E12       0.0267
     69 H33         0.4253   67.2552   66.7122 H           1 E12       0.0265
     70 H34         0.0568   68.9679   66.5288 H           1 E12       0.0265
     71 H35         2.4403   69.5528   66.8544 H           1 E12       0.0265
     72 H36         2.8734   67.8617   67.0747 H           1 E12       0.0265
     73 H37         0.9023   69.2968   68.9320 H           1 E12       0.0265
     74 H38         2.6408   69.3448   69.1405 H           1 E12       0.0265
     75 H39         2.1348   67.6686   70.6057 H           1 E12       0.0265
     76 H40         2.5653   66.7217   69.1919 H           1 E12       0.0265
     77 H41         0.1850   66.2395   68.7382 H           1 E12       0.0265
     78 H42        -0.3207   67.4161   69.9432 H           1 E12       0.0265
     79 H43        -0.6502   65.3220   70.9779 H           1 E12       0.0265
     80 H44         0.7914   65.9697   71.7249 H           1 E12       0.0265
     81 H45         1.9311   64.0639   71.2125 H           1 E12       0.0267
     82 H46         1.7349   64.3966   69.5057 H           1 E12       0.0267
     83 H47         0.8880   62.2382   69.7077 H           1 E12       0.0317
     84 H48        -0.5503   63.2255   69.6300 H           1 E12       0.0317
@<TRIPOS>BOND
     1     1     9   1
     2     1     3   2
     3     1     2  am
     4     2    15   1
     5    15    10   1
     6    15     4   2
     7     4    11   1
     8     4     5   1
     9     5     9   2
    10    11     7   1
    11    11    12   1
    12    12     6   1
    13     6    10   1
    14     7     8   1
    15     8    13   1
    16    13    28   1
    17    28    29   1
    18    29    30   1
    19    30    31   1
    20    31    32   1
    21    32    33   1
    22    33    34   1
    23    34    35   1
    24    35    36   1
    25    36    27   1
    26    27    26   1
    27    26    23   1
    28    23    24   1
    29    23    18   1
    30    18    19   1
    31    18    17   2
    32    17    22   1
    33    17    16   1
    34    16    14  am
    35    14    20   1
    36    14    21   2
    37    20    19   2
    38    22    25   1
    39    25    24   1
    40     2    37   1
    41     5    38   1
    42     6    39   1
    43     6    40   1
    44     7    41   1
    45     7    42   1
    46     8    43   1
    47     8    44   1
    48     9    45   1
    49    10    46   1
    50    10    47   1
    51    11    48   1
    52    12    49   1
    53    12    50   1
    54    13    51   1
    55    13    52   1
    56    16    53   1
    57    19    54   1
    58    20    55   1
    59    22    56   1
    60    22    57   1
    61    23    58   1
    62    24    59   1
    63    24    60   1
    64    25    61   1
    65    25    62   1
    66    26    63   1
    67    26    64   1
    68    27    65   1
    69    27    66   1
    70    28    67   1
    71    28    68   1
    72    29    69   1
    73    29    70   1
    74    30    71   1
    75    30    72   1
    76    31    73   1
    77    31    74   1
    78    32    75   1
    79    32    76   1
    80    33    77   1
    81    33    78   1
    82    34    79   1
    83    34    80   1
    84    35    81   1
    85    35    82   1
    86    36    83   1
    87    36    84   1
@<TRIPOS>SUBSTRUCTURE
     1  E12      1

