@<TRIPOS>MOLECULE
1h23_ligand_074
    84    87
SMALL
GAST_HUCK
****
This file was generated by PARSER (from files_GN.cpp)

@<TRIPOS>ATOM
      1 C1          2.3395   69.0194   65.7987 C.2         1 E12       0.1811
      2 N2          1.7186   68.8754   64.6304 N.am        1 E12      -0.2230
      3 O7          1.6870   68.9972   66.8311 O.2         1 E12      -0.4310
      4 C4          3.7312   69.0378   63.4381 C.2         1 E12       0.0225
      5 C5          4.3666   69.2310   64.6542 C.2         1 E12      -0.0779
      6 C14         2.3401   68.2781   60.9995 C.3         1 E12      -0.0310
      7 N17         5.5596   67.8823   62.2259 N.4         1 E12       0.2346
      8 C24         5.1812   66.4480   62.2324 C.3         1 E12      -0.0329
      9 C6          3.6872   69.2153   65.8184 C.2         1 E12      -0.0278
     10 C9          1.5664   68.7761   62.2412 C.3         1 E12       0.0189
     11 C10         4.5336   68.9713   62.2033 C.3         1 E12      -0.0032
     12 C13         3.7052   68.9962   60.8766 C.3         1 E12      -0.0041
     13 C63         4.6890   65.8800   63.5910 C.3         1 E12      -0.0126
     14 C29        -2.7820   60.3846   73.7787 C.2         1 E12       0.1811
     15 C3          2.3771   68.8815   63.4482 C.2         1 E12       0.0883
     16 N30        -2.3491   59.2189   74.2535 N.am        1 E12      -0.2230
     17 C31        -1.1146   58.7338   73.9737 C.2         1 E12       0.0883
     18 C32        -0.2913   59.4185   73.1269 C.2         1 E12       0.0225
     19 C33        -0.7806   60.5970   72.5909 C.2         1 E12      -0.0779
     20 C34        -1.9828   61.1009   72.9437 C.2         1 E12      -0.0278
     21 O35        -3.9139   60.7513   74.0538 O.2         1 E12      -0.4310
     22 C36        -0.7732   57.4478   74.5756 C.3         1 E12       0.0189
     23 C37         1.0444   58.9165   72.7362 C.3         1 E12      -0.0032
     24 C38         1.2644   57.4112   73.0825 C.3         1 E12      -0.0041
     25 C39         0.7290   57.0783   74.4916 C.3         1 E12      -0.0310
     26 N40         2.1871   59.6939   73.3122 N.4         1 E12       0.2346
     27 C41         2.4730   61.0874   72.8925 C.3         1 E12      -0.0329
     28 C64         4.3938   64.3494   63.5376 C.3         1 E12      -0.0483
     29 C65         4.5035   63.6207   64.9084 C.3         1 E12      -0.0529
     30 C66         3.1555   63.3272   65.6304 C.3         1 E12      -0.0531
     31 C67         3.3624   62.9879   67.1355 C.3         1 E12      -0.0531
     32 C68         3.5865   64.2361   68.0495 C.3         1 E12      -0.0531
     33 C69         4.5617   64.0490   69.2477 C.3         1 E12      -0.0531
     34 C70         4.3753   62.7789   70.1157 C.3         1 E12      -0.0529
     35 C71         3.0384   62.7061   70.9050 C.3         1 E12      -0.0483
     36 C72         2.6969   61.2549   71.3684 C.3         1 E12      -0.0126
     37 H1          0.7551   68.7579   64.6277 H           1 E12       0.2526
     38 H2          5.3503   69.3839   64.6838 H           1 E12       0.0600
     39 H3          2.4845   67.2020   61.0804 H           1 E12       0.0298
     40 H4          1.7464   68.4592   60.1003 H           1 E12       0.0298
     41 H5          6.1717   68.0428   63.0289 H           1 E12       0.2022
     42 H6          6.1331   68.0052   61.3867 H           1 E12       0.2022
     43 H7          6.0963   65.9160   61.9754 H           1 E12       0.0814
     44 H8          4.4678   66.2274   61.4406 H           1 E12       0.0814
     45 H9          4.1651   69.3510   66.6791 H           1 E12       0.0298
     46 H10         1.1465   69.7625   62.0284 H           1 E12       0.0511
     47 H11         0.7326   68.0886   62.4139 H           1 E12       0.0511
     48 H12         5.1289   69.8913   62.1768 H           1 E12       0.0913
     49 H13         4.2770   68.5522   60.0583 H           1 E12       0.0333
     50 H14         3.5058   70.0366   60.6007 H           1 E12       0.0333
     51 H15         3.7781   66.3923   63.9056 H           1 E12       0.0317
     52 H16         5.4636   66.0862   64.3331 H           1 E12       0.0317
     53 H17        -2.9398   58.6944   74.8238 H           1 E12       0.2526
     54 H18        -0.2467   61.0974   71.9196 H           1 E12       0.0600
     55 H19        -2.2989   61.9715   72.5791 H           1 E12       0.0298
     56 H20        -1.3587   56.6712   74.0698 H           1 E12       0.0511
     57 H21        -1.0612   57.4450   75.6320 H           1 E12       0.0511
     58 H22         1.1156   58.9552   71.6496 H           1 E12       0.0913
     59 H23         2.3229   57.1432   73.0236 H           1 E12       0.0333
     60 H24         0.7359   56.7886   72.3536 H           1 E12       0.0333
     61 H25         0.8606   56.0132   74.6988 H           1 E12       0.0298
     62 H26         1.2903   57.6422   75.2416 H           1 E12       0.0298
     63 H27         2.0916   59.6951   74.3302 H           1 E12       0.2022
     64 H28         3.0395   59.1757   73.0896 H           1 E12       0.2022
     65 H29         1.6783   61.7536   73.2353 H           1 E12       0.0814
     66 H30         3.4049   61.3807   73.3864 H           1 E12       0.0814
     67 H31         5.0942   63.8666   62.8477 H           1 E12       0.0267
     68 H32         3.3933   64.2001   63.1247 H           1 E12       0.0267
     69 H33         5.1558   64.1912   65.5721 H           1 E12       0.0265
     70 H34         4.9962   62.6557   64.7451 H           1 E12       0.0265
     71 H35         2.6922   62.4643   65.1380 H           1 E12       0.0265
     72 H36         2.4670   64.1707   65.5307 H           1 E12       0.0265
     73 H37         4.2028   62.2946   67.2135 H           1 E12       0.0265
     74 H38         2.4803   62.4487   67.4932 H           1 E12       0.0265
     75 H39         2.6175   64.5664   68.4288 H           1 E12       0.0265
     76 H40         3.9773   65.0632   67.4507 H           1 E12       0.0265
     77 H41         4.4880   64.9253   69.8976 H           1 E12       0.0265
     78 H42         5.5797   64.0295   68.8525 H           1 E12       0.0265
     79 H43         5.1917   62.7351   70.8430 H           1 E12       0.0265
     80 H44         4.4791   61.9029   69.4722 H           1 E12       0.0265
     81 H45         2.2222   63.0715   70.2749 H           1 E12       0.0267
     82 H46         3.1054   63.3853   71.7599 H           1 E12       0.0267
     83 H47         3.4904   60.5595   71.0821 H           1 E12       0.0317
     84 H48         1.7998   60.9428   70.8324 H           1 E12       0.0317
@<TRIPOS>BOND
     1     1     9   1
     2     1     3   2
     3     1     2  am
     4     2    15   1
     5    15    10   1
     6    15     4   2
     7     4    11   1
     8     4     5   1
     9     5     9   2
    10    11     7   1
    11    11    12   1
    12    12     6   1
    13     6    10   1
    14     7     8   1
    15     8    13   1
    16    13    28   1
    17    28    29   1
    18    29    30   1
    19    30    31   1
    20    31    32   1
    21    32    33   1
    22    33    34   1
    23    34    35   1
    24    35    36   1
    25    36    27   1
    26    27    26   1
    27    26    23   1
    28    23    24   1
    29    23    18   1
    30    18    19   1
    31    18    17   2
    32    17    22   1
    33    17    16   1
    34    16    14  am
    35    14    20   1
    36    14    21   2
    37    20    19   2
    38    22    25   1
    39    25    24   1
    40     2    37   1
    41     5    38   1
    42     6    39   1
    43     6    40   1
    44     7    41   1
    45     7    42   1
    46     8    43   1
    47     8    44   1
    48     9    45   1
    49    10    46   1
    50    10    47   1
    51    11    48   1
    52    12    49   1
    53    12    50   1
    54    13    51   1
    55    13    52   1
    56    16    53   1
    57    19    54   1
    58    20    55   1
    59    22    56   1
    60    22    57   1
    61    23    58   1
    62    24    59   1
    63    24    60   1
    64    25    61   1
    65    25    62   1
    66    26    63   1
    67    26    64   1
    68    27    65   1
    69    27    66   1
    70    28    67   1
    71    28    68   1
    72    29    69   1
    73    29    70   1
    74    30    71   1
    75    30    72   1
    76    31    73   1
    77    31    74   1
    78    32    75   1
    79    32    76   1
    80    33    77   1
    81    33    78   1
    82    34    79   1
    83    34    80   1
    84    35    81   1
    85    35    82   1
    86    36    83   1
    87    36    84   1
@<TRIPOS>SUBSTRUCTURE
     1  E12      1

