@<TRIPOS>MOLECULE
1h23_ligand_089
    84    87
SMALL
GAST_HUCK
****
This file was generated by PARSER (from files_GN.cpp)

@<TRIPOS>ATOM
      1 C1          3.9587   57.4972   71.0220 C.2         1 E12       0.1811
      2 N2          4.0068   57.8313   72.3095 N.am        1 E12      -0.2230
      3 O7          4.5172   56.4742   70.6562 O.2         1 E12      -0.4310
      4 C4          2.6628   59.7314   71.9645 C.2         1 E12       0.0225
      5 C5          2.6834   59.4156   70.6126 C.2         1 E12      -0.0779
      6 C14         3.2332   60.6723   74.6212 C.3         1 E12      -0.0310
      7 N17         0.5018   60.8532   71.8834 N.4         1 E12       0.2346
      8 C24        -0.5098   61.8736   72.2620 C.3         1 E12      -0.0329
      9 C6          3.3026   58.3152   70.1467 C.2         1 E12      -0.0278
     10 C9          3.6129   59.2260   74.2107 C.3         1 E12       0.0189
     11 C10         1.8883   60.8960   72.4437 C.3         1 E12      -0.0032
     12 C13         1.8691   61.0374   74.0033 C.3         1 E12      -0.0041
     13 C63        -0.1214   63.3575   72.0280 C.3         1 E12      -0.0126
     14 C29         2.5686   68.3529   60.6777 C.2         1 E12       0.1811
     15 C3          3.4123   58.9470   72.7965 C.2         1 E12       0.0883
     16 N30         3.7832   68.0085   61.1037 N.am        1 E12      -0.2230
     17 C31         4.1281   68.0475   62.4094 C.2         1 E12       0.0883
     18 C32         3.2338   68.5120   63.3257 C.2         1 E12       0.0225
     19 C33         1.9724   68.8679   62.8778 C.2         1 E12      -0.0779
     20 C34         1.6358   68.7706   61.5746 C.2         1 E12      -0.0278
     21 O35         2.3265   68.3237   59.4859 O.2         1 E12      -0.4310
     22 C36         5.5019   67.6651   62.7268 C.3         1 E12       0.0189
     23 C37         3.5692   68.6917   64.7519 C.3         1 E12      -0.0032
     24 C38         5.1045   68.6659   65.0263 C.3         1 E12      -0.0041
     25 C39         5.7935   67.5274   64.2442 C.3         1 E12      -0.0310
     26 N40         2.8925   67.6683   65.6194 N.4         1 E12       0.2346
     27 C41         1.5906   68.0058   66.2718 C.3         1 E12      -0.0329
     28 C64         0.2311   63.6994   70.5555 C.3         1 E12      -0.0483
     29 C65         0.6020   65.2007   70.3675 C.3         1 E12      -0.0529
     30 C66        -0.5995   66.1925   70.2506 C.3         1 E12      -0.0531
     31 C67        -1.1962   66.2889   68.8059 C.3         1 E12      -0.0531
     32 C68        -2.1499   67.5040   68.5482 C.3         1 E12      -0.0531
     33 C69        -1.8168   68.3279   67.2619 C.3         1 E12      -0.0531
     34 C70        -0.9108   69.5901   67.4498 C.3         1 E12      -0.0529
     35 C71         0.4395   69.4205   68.2278 C.3         1 E12      -0.0483
     36 C72         1.7285   69.0495   67.4169 C.3         1 E12      -0.0126
     37 H1          4.4940   57.2523   72.9167 H           1 E12       0.2526
     38 H2          2.2424   60.0153   69.9556 H           1 E12       0.0600
     39 H3          3.1911   60.7489   75.7123 H           1 E12       0.0298
     40 H4          3.9980   61.3691   74.2623 H           1 E12       0.0298
     41 H5          0.1001   59.9414   72.1186 H           1 E12       0.2022
     42 H6          0.5828   60.8976   70.8646 H           1 E12       0.2022
     43 H7         -0.7704   61.7375   73.3151 H           1 E12       0.0814
     44 H8         -1.4136   61.6643   71.6809 H           1 E12       0.0814
     45 H9          3.2956   58.1102   69.1704 H           1 E12       0.0298
     46 H10         4.6635   59.0739   74.4721 H           1 E12       0.0511
     47 H11         3.0162   58.5161   74.7908 H           1 E12       0.0511
     48 H12         2.3897   61.7816   72.0444 H           1 E12       0.0913
     49 H13         1.1038   60.3796   74.4250 H           1 E12       0.0333
     50 H14         1.6237   62.0635   74.2878 H           1 E12       0.0333
     51 H15         0.7344   63.6093   72.6644 H           1 E12       0.0317
     52 H16        -0.9659   63.9754   72.3495 H           1 E12       0.0317
     53 H17         4.4527   67.7376   60.4521 H           1 E12       0.2526
     54 H18         1.3009   69.2411   63.5072 H           1 E12       0.0600
     55 H19         0.7261   69.0305   61.2731 H           1 E12       0.0298
     56 H20         6.1707   68.4224   62.3031 H           1 E12       0.0511
     57 H21         5.7397   66.7103   62.2430 H           1 E12       0.0511
     58 H22         3.2417   69.6932   65.0429 H           1 E12       0.0913
     59 H23         5.2982   68.5463   66.0926 H           1 E12       0.0333
     60 H24         5.5401   69.6211   64.7162 H           1 E12       0.0333
     61 H25         6.8729   67.5617   64.4154 H           1 E12       0.0298
     62 H26         5.4235   66.5597   64.5967 H           1 E12       0.0298
     63 H27         2.7543   66.8291   65.0480 H           1 E12       0.2022
     64 H28         3.5399   67.4243   66.3771 H           1 E12       0.2022
     65 H29         0.8724   68.3432   65.5196 H           1 E12       0.0814
     66 H30         1.2122   67.0737   66.6965 H           1 E12       0.0814
     67 H31        -0.6053   63.4312   69.8986 H           1 E12       0.0267
     68 H32         1.1015   63.0956   70.2632 H           1 E12       0.0267
     69 H33         1.2236   65.2873   69.4664 H           1 E12       0.0265
     70 H34         1.2295   65.5227   71.2089 H           1 E12       0.0265
     71 H35        -0.2180   67.1711   70.5445 H           1 E12       0.0265
     72 H36        -1.3971   65.9129   70.9494 H           1 E12       0.0265
     73 H37        -1.7435   65.3667   68.5848 H           1 E12       0.0265
     74 H38        -0.3589   66.3470   68.1082 H           1 E12       0.0265
     75 H39        -2.1388   68.1869   69.4024 H           1 E12       0.0265
     76 H40        -3.1771   67.1234   68.4635 H           1 E12       0.0265
     77 H41        -2.7621   68.6972   66.8499 H           1 E12       0.0265
     78 H42        -1.3757   67.6799   66.4986 H           1 E12       0.0265
     79 H43        -1.5117   70.3457   67.9850 H           1 E12       0.0265
     80 H44        -0.7127   70.0026   66.4511 H           1 E12       0.0265
     81 H45         0.3094   68.6956   69.0229 H           1 E12       0.0267
     82 H46         0.6547   70.3844   68.7102 H           1 E12       0.0267
     83 H47         2.4708   68.6659   68.1318 H           1 E12       0.0317
     84 H48         2.1405   69.9753   67.0017 H           1 E12       0.0317
@<TRIPOS>BOND
     1     1     9   1
     2     1     3   2
     3     1     2  am
     4     2    15   1
     5    15    10   1
     6    15     4   2
     7     4    11   1
     8     4     5   1
     9     5     9   2
    10    11     7   1
    11    11    12   1
    12    12     6   1
    13     6    10   1
    14     7     8   1
    15     8    13   1
    16    13    28   1
    17    28    29   1
    18    29    30   1
    19    30    31   1
    20    31    32   1
    21    32    33   1
    22    33    34   1
    23    34    35   1
    24    35    36   1
    25    36    27   1
    26    27    26   1
    27    26    23   1
    28    23    24   1
    29    23    18   1
    30    18    19   1
    31    18    17   2
    32    17    22   1
    33    17    16   1
    34    16    14  am
    35    14    20   1
    36    14    21   2
    37    20    19   2
    38    22    25   1
    39    25    24   1
    40     2    37   1
    41     5    38   1
    42     6    39   1
    43     6    40   1
    44     7    41   1
    45     7    42   1
    46     8    43   1
    47     8    44   1
    48     9    45   1
    49    10    46   1
    50    10    47   1
    51    11    48   1
    52    12    49   1
    53    12    50   1
    54    13    51   1
    55    13    52   1
    56    16    53   1
    57    19    54   1
    58    20    55   1
    59    22    56   1
    60    22    57   1
    61    23    58   1
    62    24    59   1
    63    24    60   1
    64    25    61   1
    65    25    62   1
    66    26    63   1
    67    26    64   1
    68    27    65   1
    69    27    66   1
    70    28    67   1
    71    28    68   1
    72    29    69   1
    73    29    70   1
    74    30    71   1
    75    30    72   1
    76    31    73   1
    77    31    74   1
    78    32    75   1
    79    32    76   1
    80    33    77   1
    81    33    78   1
    82    34    79   1
    83    34    80   1
    84    35    81   1
    85    35    82   1
    86    36    83   1
    87    36    84   1
@<TRIPOS>SUBSTRUCTURE
     1  E12      1

