@<TRIPOS>MOLECULE
1h23_ligand_041
    84    87
SMALL
GAST_HUCK
****
This file was generated by PARSER (from files_GN.cpp)

@<TRIPOS>ATOM
      1 C1         -0.7610   55.4329   73.9764 C.2         1 E12       0.1811
      2 N2         -1.3551   55.8172   75.1017 N.am        1 E12      -0.2230
      3 O7         -0.6370   54.2397   73.7389 O.2         1 E12      -0.4310
      4 C4         -1.0975   58.0941   74.5636 C.2         1 E12       0.0225
      5 C5         -0.4348   57.6791   73.4210 C.2         1 E12      -0.0779
      6 C14        -1.6378   58.8215   77.2695 C.3         1 E12      -0.0310
      7 N17        -2.1299   60.1019   73.6969 N.4         1 E12       0.2346
      8 C24        -2.1471   61.5670   73.4588 C.3         1 E12      -0.0329
      9 C6         -0.2673   56.3731   73.1217 C.2         1 E12      -0.0278
     10 C9         -2.0427   57.4182   76.7581 C.3         1 E12       0.0189
     11 C10        -1.3046   59.5398   74.8053 C.3         1 E12      -0.0032
     12 C13        -1.9565   59.8841   76.1846 C.3         1 E12      -0.0041
     13 C63        -1.4625   62.0047   72.1171 C.3         1 E12      -0.0126
     14 C29         2.4821   68.3810   60.7905 C.2         1 E12       0.1811
     15 C3         -1.4955   57.1235   75.4398 C.2         1 E12       0.0883
     16 N30         3.7787   68.1295   60.9692 N.am        1 E12      -0.2230
     17 C31         4.3843   68.2516   62.1771 C.2         1 E12       0.0883
     18 C32         3.6519   68.6589   63.2539 C.2         1 E12       0.0225
     19 C33         2.2986   68.8852   63.0646 C.2         1 E12      -0.0779
     20 C34         1.7199   68.7598   61.8549 C.2         1 E12      -0.0278
     21 O35         2.0094   68.2960   59.6676 O.2         1 E12      -0.4310
     22 C36         5.8297   68.0513   62.1984 C.3         1 E12       0.0189
     23 C37         4.2571   68.9827   64.5567 C.3         1 E12      -0.0032
     24 C38         5.8215   68.9293   64.5929 C.3         1 E12      -0.0041
     25 C39         6.4404   67.9077   63.6109 C.3         1 E12      -0.0310
     26 N40         3.6166   68.2950   65.7163 N.4         1 E12       0.2346
     27 C41         3.8881   66.8552   65.9830 C.3         1 E12      -0.0329
     28 C64        -0.4676   63.1952   72.2533 C.3         1 E12      -0.0483
     29 C65         0.7432   63.1699   71.2741 C.3         1 E12      -0.0529
     30 C66         1.2405   64.5396   70.7125 C.3         1 E12      -0.0531
     31 C67         2.4510   64.4339   69.7307 C.3         1 E12      -0.0531
     32 C68         3.8619   64.5491   70.3915 C.3         1 E12      -0.0531
     33 C69         5.0644   63.9929   69.5599 C.3         1 E12      -0.0531
     34 C70         5.9744   65.0288   68.8408 C.3         1 E12      -0.0529
     35 C71         5.5405   65.4405   67.3961 C.3         1 E12      -0.0483
     36 C72         4.6358   66.7053   67.3439 C.3         1 E12      -0.0126
     37 H1         -1.6878   55.1386   75.7083 H           1 E12       0.2526
     38 H2         -0.0385   58.3559   72.8104 H           1 E12       0.0600
     39 H3         -2.1795   59.0501   78.1914 H           1 E12       0.0298
     40 H4         -0.5668   58.8347   77.4902 H           1 E12       0.0298
     41 H5         -3.0992   59.7895   73.8366 H           1 E12       0.2022
     42 H6         -1.8069   59.6846   72.8219 H           1 E12       0.2022
     43 H7         -1.7306   62.0934   74.3249 H           1 E12       0.0814
     44 H8         -3.2065   61.8438   73.4066 H           1 E12       0.0814
     45 H9          0.2325   56.1089   72.3071 H           1 E12       0.0298
     46 H10        -1.6847   56.6781   77.4844 H           1 E12       0.0511
     47 H11        -3.1308   57.3345   76.7088 H           1 E12       0.0511
     48 H12        -0.3200   60.0129   74.7800 H           1 E12       0.0913
     49 H13        -3.0470   59.9363   76.0868 H           1 E12       0.0333
     50 H14        -1.6089   60.8561   76.5320 H           1 E12       0.0333
     51 H15        -2.2363   62.2845   71.3947 H           1 E12       0.0317
     52 H16        -0.9293   61.1474   71.7026 H           1 E12       0.0317
     53 H17         4.3272   67.8801   60.2062 H           1 E12       0.2526
     54 H18         1.7324   69.1873   63.8246 H           1 E12       0.0600
     55 H19         0.7522   68.9638   61.7365 H           1 E12       0.0298
     56 H20         6.2967   68.9008   61.6810 H           1 E12       0.0511
     57 H21         6.0729   67.1416   61.6358 H           1 E12       0.0511
     58 H22         4.0184   70.0337   64.7257 H           1 E12       0.0913
     59 H23         6.1677   68.6878   65.6002 H           1 E12       0.0333
     60 H24         6.2238   69.9204   64.3455 H           1 E12       0.0333
     61 H25         7.5202   68.0733   63.5441 H           1 E12       0.0298
     62 H26         6.2611   66.8949   63.9861 H           1 E12       0.0298
     63 H27         3.8776   68.8402   66.5450 H           1 E12       0.2022
     64 H28         2.5967   68.3987   65.6063 H           1 E12       0.2022
     65 H29         2.9228   66.3352   66.0540 H           1 E12       0.0814
     66 H30         4.4750   66.4070   65.1651 H           1 E12       0.0814
     67 H31        -0.0630   63.1785   73.2706 H           1 E12       0.0267
     68 H32        -1.0089   64.1407   72.1331 H           1 E12       0.0267
     69 H33         0.5101   62.5004   70.4344 H           1 E12       0.0265
     70 H34         1.5823   62.7221   71.8216 H           1 E12       0.0265
     71 H35         1.5098   65.1924   71.5542 H           1 E12       0.0265
     72 H36         0.4125   65.0254   70.1814 H           1 E12       0.0265
     73 H37         2.3537   65.2220   68.9806 H           1 E12       0.0265
     74 H38         2.3685   63.4720   69.2179 H           1 E12       0.0265
     75 H39         3.8554   63.9645   71.3154 H           1 E12       0.0265
     76 H40         4.0496   65.5873   70.6785 H           1 E12       0.0265
     77 H41         4.7114   63.2506   68.8347 H           1 E12       0.0265
     78 H42         5.7231   63.4536   70.2558 H           1 E12       0.0265
     79 H43         6.9722   64.5736   68.7676 H           1 E12       0.0265
     80 H44         6.0873   65.9091   69.4863 H           1 E12       0.0265
     81 H45         5.0428   64.6015   66.8927 H           1 E12       0.0267
     82 H46         6.4542   65.6730   66.8282 H           1 E12       0.0267
     83 H47         5.2847   67.5845   67.5061 H           1 E12       0.0317
     84 H48         3.8959   66.6606   68.1642 H           1 E12       0.0317
@<TRIPOS>BOND
     1     1     9   1
     2     1     3   2
     3     1     2  am
     4     2    15   1
     5    15    10   1
     6    15     4   2
     7     4    11   1
     8     4     5   1
     9     5     9   2
    10    11     7   1
    11    11    12   1
    12    12     6   1
    13     6    10   1
    14     7     8   1
    15     8    13   1
    16    13    28   1
    17    28    29   1
    18    29    30   1
    19    30    31   1
    20    31    32   1
    21    32    33   1
    22    33    34   1
    23    34    35   1
    24    35    36   1
    25    36    27   1
    26    27    26   1
    27    26    23   1
    28    23    24   1
    29    23    18   1
    30    18    19   1
    31    18    17   2
    32    17    22   1
    33    17    16   1
    34    16    14  am
    35    14    20   1
    36    14    21   2
    37    20    19   2
    38    22    25   1
    39    25    24   1
    40     2    37   1
    41     5    38   1
    42     6    39   1
    43     6    40   1
    44     7    41   1
    45     7    42   1
    46     8    43   1
    47     8    44   1
    48     9    45   1
    49    10    46   1
    50    10    47   1
    51    11    48   1
    52    12    49   1
    53    12    50   1
    54    13    51   1
    55    13    52   1
    56    16    53   1
    57    19    54   1
    58    20    55   1
    59    22    56   1
    60    22    57   1
    61    23    58   1
    62    24    59   1
    63    24    60   1
    64    25    61   1
    65    25    62   1
    66    26    63   1
    67    26    64   1
    68    27    65   1
    69    27    66   1
    70    28    67   1
    71    28    68   1
    72    29    69   1
    73    29    70   1
    74    30    71   1
    75    30    72   1
    76    31    73   1
    77    31    74   1
    78    32    75   1
    79    32    76   1
    80    33    77   1
    81    33    78   1
    82    34    79   1
    83    34    80   1
    84    35    81   1
    85    35    82   1
    86    36    83   1
    87    36    84   1
@<TRIPOS>SUBSTRUCTURE
     1  E12      1

