@<TRIPOS>MOLECULE
1h23_ligand_080
    84    87
SMALL
GAST_HUCK
****
This file was generated by PARSER (from files_GN.cpp)

@<TRIPOS>ATOM
      1 C1          0.4901   52.8321   74.1352 C.2         1 E12       0.1811
      2 N2         -0.4003   53.7721   73.8291 N.am        1 E12      -0.2230
      3 O7          0.1521   51.6572   74.1206 O.2         1 E12      -0.4310
      4 C4          1.1786   55.4853   74.1113 C.2         1 E12       0.0225
      5 C5          2.0851   54.5071   74.4781 C.2         1 E12      -0.0779
      6 C14        -0.9120   57.4459   74.1502 C.3         1 E12      -0.0310
      7 N17         2.8239   57.1669   73.2511 N.4         1 E12       0.2346
      8 C24         2.8750   56.6586   71.8549 C.3         1 E12      -0.0329
      9 C6          1.7534   53.2004   74.4898 C.2         1 E12      -0.0278
     10 C9         -1.1890   56.0250   73.6036 C.3         1 E12       0.0189
     11 C10         1.6073   56.8993   74.0770 C.3         1 E12      -0.0032
     12 C13         0.4867   57.9245   73.6922 C.3         1 E12      -0.0041
     13 C63         3.9985   57.3482   71.0281 C.3         1 E12      -0.0126
     14 C29        -0.1458   65.3489   70.3066 C.2         1 E12       0.1811
     15 C3         -0.0989   55.0921   73.8506 C.2         1 E12       0.0883
     16 N30        -0.9052   65.9080   69.3646 N.am        1 E12      -0.2230
     17 C31        -0.6203   67.1168   68.8238 C.2         1 E12       0.0883
     18 C32         0.4759   67.8050   69.2522 C.2         1 E12       0.0225
     19 C33         1.2115   67.2524   70.2856 C.2         1 E12      -0.0779
     20 C34         0.9280   66.0325   70.7898 C.2         1 E12      -0.0278
     21 O35        -0.4359   64.2376   70.7297 O.2         1 E12      -0.4310
     22 C36        -1.5664   67.6276   67.8394 C.3         1 E12       0.0189
     23 C37         0.8804   69.0959   68.6521 C.3         1 E12      -0.0032
     24 C38        -0.3297   69.8448   68.0182 C.3         1 E12      -0.0041
     25 C39        -1.1034   68.8956   67.0714 C.3         1 E12      -0.0310
     26 N40         2.0108   69.0533   67.6603 N.4         1 E12       0.2346
     27 C41         2.6399   67.7804   67.2113 C.3         1 E12      -0.0329
     28 C64         3.6213   58.7230   70.3924 C.3         1 E12      -0.0483
     29 C65         4.0688   59.9690   71.2126 C.3         1 E12      -0.0529
     30 C66         3.5361   61.3118   70.6318 C.3         1 E12      -0.0531
     31 C67         4.0191   62.5961   71.3780 C.3         1 E12      -0.0531
     32 C68         5.3799   63.1794   70.8880 C.3         1 E12      -0.0531
     33 C69         5.3214   63.9417   69.5263 C.3         1 E12      -0.0531
     34 C70         4.7465   65.3922   69.5858 C.3         1 E12      -0.0529
     35 C71         3.9760   65.8078   68.2932 C.3         1 E12      -0.0483
     36 C72         3.8121   67.3499   68.1419 C.3         1 E12      -0.0126
     37 H1         -1.3068   53.5050   73.5977 H           1 E12       0.2526
     38 H2          3.0024   54.7683   74.7595 H           1 E12       0.0600
     39 H3         -1.6772   58.1376   73.7889 H           1 E12       0.0298
     40 H4         -0.9488   57.4302   75.2439 H           1 E12       0.0298
     41 H5          3.6351   56.7645   73.7240 H           1 E12       0.2022
     42 H6          2.9492   58.1762   73.2244 H           1 E12       0.2022
     43 H7          1.9155   56.7799   71.3451 H           1 E12       0.0814
     44 H8          3.0875   55.5823   71.8966 H           1 E12       0.0814
     45 H9          2.4156   52.5207   74.7814 H           1 E12       0.0298
     46 H10        -2.1034   55.6580   74.0827 H           1 E12       0.0511
     47 H11        -1.3651   56.0626   72.5251 H           1 E12       0.0511
     48 H12         1.8906   57.1464   75.1073 H           1 E12       0.0913
     49 H13         0.4552   58.0716   72.6081 H           1 E12       0.0333
     50 H14         0.7012   58.8964   74.1531 H           1 E12       0.0333
     51 H15         4.2580   56.6634   70.2184 H           1 E12       0.0317
     52 H16         4.8978   57.4523   71.6440 H           1 E12       0.0317
     53 H17        -1.6740   65.4179   69.0338 H           1 E12       0.2526
     54 H18         1.9627   67.7617   70.6889 H           1 E12       0.0600
     55 H19         1.4774   65.6514   71.5279 H           1 E12       0.0298
     56 H20        -2.4953   67.8623   68.3677 H           1 E12       0.0511
     57 H21        -1.7899   66.8485   67.1031 H           1 E12       0.0511
     58 H22         1.2251   69.7454   69.4619 H           1 E12       0.0913
     59 H23         0.0058   70.7273   67.4690 H           1 E12       0.0333
     60 H24        -1.0045   70.1923   68.8057 H           1 E12       0.0333
     61 H25        -1.9677   69.4162   66.6487 H           1 E12       0.0298
     62 H26        -0.4510   68.6018   66.2430 H           1 E12       0.0298
     63 H27         1.6781   69.5176   66.8103 H           1 E12       0.2022
     64 H28         2.7569   69.6457   68.0329 H           1 E12       0.2022
     65 H29         1.8789   67.0054   67.1181 H           1 E12       0.0814
     66 H30         3.0389   67.9511   66.2089 H           1 E12       0.0814
     67 H31         2.5426   58.7681   70.2202 H           1 E12       0.0267
     68 H32         4.0980   58.7882   69.4107 H           1 E12       0.0267
     69 H33         5.1619   59.9974   71.2361 H           1 E12       0.0265
     70 H34         3.7124   59.8742   72.2400 H           1 E12       0.0265
     71 H35         2.4427   61.2881   70.6793 H           1 E12       0.0265
     72 H36         3.8065   61.3702   69.5744 H           1 E12       0.0265
     73 H37         4.1004   62.3718   72.4482 H           1 E12       0.0265
     74 H38         3.2530   63.3734   71.2756 H           1 E12       0.0265
     75 H39         6.0959   62.3577   70.8131 H           1 E12       0.0265
     76 H40         5.7624   63.8669   71.6472 H           1 E12       0.0265
     77 H41         4.7605   63.3379   68.8128 H           1 E12       0.0265
     78 H42         6.3421   64.0116   69.1354 H           1 E12       0.0265
     79 H43         5.5846   66.0800   69.7454 H           1 E12       0.0265
     80 H44         4.0712   65.4987   70.4411 H           1 E12       0.0265
     81 H45         2.9977   65.3215   68.3320 H           1 E12       0.0267
     82 H46         4.4983   65.4230   67.4108 H           1 E12       0.0267
     83 H47         4.7489   67.7601   67.7475 H           1 E12       0.0317
     84 H48         3.6733   67.7913   69.1296 H           1 E12       0.0317
@<TRIPOS>BOND
     1     1     9   1
     2     1     3   2
     3     1     2  am
     4     2    15   1
     5    15    10   1
     6    15     4   2
     7     4    11   1
     8     4     5   1
     9     5     9   2
    10    11     7   1
    11    11    12   1
    12    12     6   1
    13     6    10   1
    14     7     8   1
    15     8    13   1
    16    13    28   1
    17    28    29   1
    18    29    30   1
    19    30    31   1
    20    31    32   1
    21    32    33   1
    22    33    34   1
    23    34    35   1
    24    35    36   1
    25    36    27   1
    26    27    26   1
    27    26    23   1
    28    23    24   1
    29    23    18   1
    30    18    19   1
    31    18    17   2
    32    17    22   1
    33    17    16   1
    34    16    14  am
    35    14    20   1
    36    14    21   2
    37    20    19   2
    38    22    25   1
    39    25    24   1
    40     2    37   1
    41     5    38   1
    42     6    39   1
    43     6    40   1
    44     7    41   1
    45     7    42   1
    46     8    43   1
    47     8    44   1
    48     9    45   1
    49    10    46   1
    50    10    47   1
    51    11    48   1
    52    12    49   1
    53    12    50   1
    54    13    51   1
    55    13    52   1
    56    16    53   1
    57    19    54   1
    58    20    55   1
    59    22    56   1
    60    22    57   1
    61    23    58   1
    62    24    59   1
    63    24    60   1
    64    25    61   1
    65    25    62   1
    66    26    63   1
    67    26    64   1
    68    27    65   1
    69    27    66   1
    70    28    67   1
    71    28    68   1
    72    29    69   1
    73    29    70   1
    74    30    71   1
    75    30    72   1
    76    31    73   1
    77    31    74   1
    78    32    75   1
    79    32    76   1
    80    33    77   1
    81    33    78   1
    82    34    79   1
    83    34    80   1
    84    35    81   1
    85    35    82   1
    86    36    83   1
    87    36    84   1
@<TRIPOS>SUBSTRUCTURE
     1  E12      1

