@<TRIPOS>MOLECULE
1h23_ligand_082
    84    87
SMALL
GAST_HUCK
****
This file was generated by PARSER (from files_GN.cpp)

@<TRIPOS>ATOM
      1 C1         -0.5505   69.3845   61.2587 C.2         1 E12       0.1811
      2 N2         -0.7363   69.3630   62.5756 N.am        1 E12      -0.2230
      3 O7         -1.3398   69.9878   60.5474 O.2         1 E12      -0.4310
      4 C4          1.2748   68.2077   62.9253 C.2         1 E12       0.0225
      5 C5          1.3899   68.1185   61.5471 C.2         1 E12      -0.0779
      6 C14         0.7087   67.9337   65.7613 C.3         1 E12      -0.0310
      7 N17         3.7001   67.9570   63.3452 N.4         1 E12       0.2346
      8 C24         4.7885   66.9913   63.6508 C.3         1 E12      -0.0329
      9 C6          0.5041   68.7102   60.7215 C.2         1 E12      -0.0278
     10 C9         -0.2567   68.7152   64.8304 C.3         1 E12       0.0189
     11 C10         2.3140   67.6373   63.8060 C.3         1 E12      -0.0032
     12 C13         2.1646   68.1161   65.2834 C.3         1 E12      -0.0041
     13 C63         4.6930   65.6201   62.9083 C.3         1 E12      -0.0126
     14 C29         3.9210   57.5583   70.8144 C.2         1 E12       0.1811
     15 C3          0.1194   68.7436   63.4188 C.2         1 E12       0.0883
     16 N30         3.8814   57.8660   72.1102 N.am        1 E12      -0.2230
     17 C31         3.3033   58.9991   72.5720 C.2         1 E12       0.0883
     18 C32         2.6659   59.8345   71.7005 C.2         1 E12       0.0225
     19 C33         2.7351   59.5181   70.3536 C.2         1 E12      -0.0779
     20 C34         3.3486   58.4016   69.9121 C.2         1 E12      -0.0278
     21 O35         4.4772   56.5273   70.4645 O.2         1 E12      -0.4310
     22 C36         3.4238   59.2605   74.0029 C.3         1 E12       0.0189
     23 C37         2.0664   61.1177   72.1256 C.3         1 E12      -0.0032
     24 C38         1.9532   61.2883   73.6732 C.3         1 E12      -0.0041
     25 C39         3.2059   60.7437   74.3896 C.3         1 E12      -0.0310
     26 N40         0.6990   61.3638   71.5674 N.4         1 E12       0.2346
     27 C41         0.4872   62.3440   70.4686 C.3         1 E12      -0.0329
     28 C64         4.0922   64.3963   63.6650 C.3         1 E12      -0.0483
     29 C65         4.7101   64.1123   65.0709 C.3         1 E12      -0.0529
     30 C66         3.8318   64.6173   66.2581 C.3         1 E12      -0.0531
     31 C67         4.5786   64.8187   67.6229 C.3         1 E12      -0.0531
     32 C68         4.3200   66.1885   68.3428 C.3         1 E12      -0.0531
     33 C69         3.9344   66.1467   69.8530 C.3         1 E12      -0.0531
     34 C70         2.4508   65.7500   70.1481 C.3         1 E12      -0.0529
     35 C71         2.2629   64.2815   70.6126 C.3         1 E12      -0.0483
     36 C72         0.7774   63.8407   70.7893 C.3         1 E12      -0.0126
     37 H1         -1.4942   69.8323   62.9562 H           1 E12       0.2526
     38 H2          2.1259   67.5888   61.1382 H           1 E12       0.0600
     39 H3          0.6023   68.2925   66.7876 H           1 E12       0.0298
     40 H4          0.4529   66.8700   65.7528 H           1 E12       0.0298
     41 H5          3.9589   68.8644   63.7468 H           1 E12       0.2022
     42 H6          3.6957   68.0712   62.3312 H           1 E12       0.2022
     43 H7          4.8916   66.8651   64.7272 H           1 E12       0.0814
     44 H8          5.7046   67.4846   63.3173 H           1 E12       0.0814
     45 H9          0.6004   68.6223   59.7359 H           1 E12       0.0298
     46 H10        -1.2564   68.2772   64.9232 H           1 E12       0.0511
     47 H11        -0.3167   69.7449   65.1884 H           1 E12       0.0511
     48 H12         2.1601   66.5581   63.7713 H           1 E12       0.0913
     49 H13         2.4332   69.1752   65.3617 H           1 E12       0.0333
     50 H14         2.8288   67.5462   65.9375 H           1 E12       0.0333
     51 H15         5.7052   65.3363   62.6063 H           1 E12       0.0317
     52 H16         4.1234   65.7554   61.9844 H           1 E12       0.0317
     53 H17         4.3119   57.2653   72.7362 H           1 E12       0.2526
     54 H18         2.3485   60.1292   69.6758 H           1 E12       0.0600
     55 H19         3.3963   58.2147   68.9368 H           1 E12       0.0298
     56 H20         4.4190   58.9730   74.3507 H           1 E12       0.0511
     57 H21         2.6954   58.6366   74.5258 H           1 E12       0.0511
     58 H22         2.7609   61.8789   71.7776 H           1 E12       0.0913
     59 H23         1.0798   60.7438   74.0474 H           1 E12       0.0333
     60 H24         1.8206   62.3462   73.9200 H           1 E12       0.0333
     61 H25         4.0774   61.3361   74.0969 H           1 E12       0.0298
     62 H26         3.0796   60.8300   75.4717 H           1 E12       0.0298
     63 H27         0.3331   60.4649   71.2419 H           1 E12       0.2022
     64 H28         0.0938   61.6678   72.3328 H           1 E12       0.2022
     65 H29         1.0310   62.0425   69.5726 H           1 E12       0.0814
     66 H30        -0.5754   62.2702   70.2210 H           1 E12       0.0814
     67 H31         4.2662   63.5205   63.0318 H           1 E12       0.0267
     68 H32         3.0072   64.4988   63.7417 H           1 E12       0.0267
     69 H33         5.7055   64.5669   65.1172 H           1 E12       0.0265
     70 H34         4.8448   63.0310   65.1843 H           1 E12       0.0265
     71 H35         3.0109   63.9014   66.4020 H           1 E12       0.0265
     72 H36         3.3573   65.5568   65.9528 H           1 E12       0.0265
     73 H37         5.6571   64.7310   67.4667 H           1 E12       0.0265
     74 H38         4.3152   63.9879   68.2756 H           1 E12       0.0265
     75 H39         3.5354   66.7537   67.8331 H           1 E12       0.0265
     76 H40         5.2331   66.7899   68.2471 H           1 E12       0.0265
     77 H41         4.0869   67.1598   70.2434 H           1 E12       0.0265
     78 H42         4.6315   65.4985   70.3944 H           1 E12       0.0265
     79 H43         1.8390   65.9308   69.2590 H           1 E12       0.0265
     80 H44         2.0638   66.3994   70.9389 H           1 E12       0.0265
     81 H45         2.7795   64.1697   71.5697 H           1 E12       0.0267
     82 H46         2.7461   63.6255   69.8899 H           1 E12       0.0267
     83 H47         0.1527   64.4386   70.1172 H           1 E12       0.0317
     84 H48         0.4491   64.0620   71.8092 H           1 E12       0.0317
@<TRIPOS>BOND
     1     1     9   1
     2     1     3   2
     3     1     2  am
     4     2    15   1
     5    15    10   1
     6    15     4   2
     7     4    11   1
     8     4     5   1
     9     5     9   2
    10    11     7   1
    11    11    12   1
    12    12     6   1
    13     6    10   1
    14     7     8   1
    15     8    13   1
    16    13    28   1
    17    28    29   1
    18    29    30   1
    19    30    31   1
    20    31    32   1
    21    32    33   1
    22    33    34   1
    23    34    35   1
    24    35    36   1
    25    36    27   1
    26    27    26   1
    27    26    23   1
    28    23    24   1
    29    23    18   1
    30    18    19   1
    31    18    17   2
    32    17    22   1
    33    17    16   1
    34    16    14  am
    35    14    20   1
    36    14    21   2
    37    20    19   2
    38    22    25   1
    39    25    24   1
    40     2    37   1
    41     5    38   1
    42     6    39   1
    43     6    40   1
    44     7    41   1
    45     7    42   1
    46     8    43   1
    47     8    44   1
    48     9    45   1
    49    10    46   1
    50    10    47   1
    51    11    48   1
    52    12    49   1
    53    12    50   1
    54    13    51   1
    55    13    52   1
    56    16    53   1
    57    19    54   1
    58    20    55   1
    59    22    56   1
    60    22    57   1
    61    23    58   1
    62    24    59   1
    63    24    60   1
    64    25    61   1
    65    25    62   1
    66    26    63   1
    67    26    64   1
    68    27    65   1
    69    27    66   1
    70    28    67   1
    71    28    68   1
    72    29    69   1
    73    29    70   1
    74    30    71   1
    75    30    72   1
    76    31    73   1
    77    31    74   1
    78    32    75   1
    79    32    76   1
    80    33    77   1
    81    33    78   1
    82    34    79   1
    83    34    80   1
    84    35    81   1
    85    35    82   1
    86    36    83   1
    87    36    84   1
@<TRIPOS>SUBSTRUCTURE
     1  E12      1

