@<TRIPOS>MOLECULE
1h23_ligand_068
    84    87
SMALL
GAST_HUCK
****
This file was generated by PARSER (from files_GN.cpp)

@<TRIPOS>ATOM
      1 C1          4.1540   64.1976   65.2593 C.2         1 E12       0.1811
      2 N2          4.8652   64.8179   66.2025 N.am        1 E12      -0.2230
      3 O7          4.2713   64.5446   64.0973 O.2         1 E12      -0.4310
      4 C4          3.9842   63.4561   67.9005 C.2         1 E12       0.0225
      5 C5          3.2193   62.8406   66.9176 C.2         1 E12      -0.0779
      6 C14         5.0578   65.2403   69.9019 C.3         1 E12      -0.0310
      7 N17         3.8719   61.6085   69.5787 N.4         1 E12       0.2346
      8 C24         2.6092   60.8924   69.9050 C.3         1 E12      -0.0329
      9 C6          3.3010   63.1989   65.6214 C.2         1 E12      -0.0278
     10 C9          5.5443   65.3211   68.4361 C.3         1 E12       0.0189
     11 C10         3.8102   63.0864   69.3221 C.3         1 E12      -0.0032
     12 C13         4.8285   63.7659   70.2875 C.3         1 E12      -0.0041
     13 C63         1.9958   61.2593   71.2979 C.3         1 E12      -0.0126
     14 C29         2.7267   68.3423   60.2476 C.2         1 E12       0.1811
     15 C3          4.7665   64.5020   67.5108 C.2         1 E12       0.0883
     16 N30         3.9203   68.3983   60.8334 N.am        1 E12      -0.2230
     17 C31         4.0705   68.4802   62.1729 C.2         1 E12       0.0883
     18 C32         2.9675   68.4517   62.9756 C.2         1 E12       0.0225
     19 C33         1.7257   68.4441   62.3552 C.2         1 E12      -0.0779
     20 C34         1.6021   68.3677   61.0141 C.2         1 E12      -0.0278
     21 O35         2.6670   68.3187   59.0284 O.2         1 E12      -0.4310
     22 C36         5.4382   68.5871   62.6736 C.3         1 E12       0.0189
     23 C37         3.0578   68.5328   64.4494 C.3         1 E12      -0.0032
     24 C38         4.5041   68.3744   65.0095 C.3         1 E12      -0.0041
     25 C39         5.5332   69.1051   64.1298 C.3         1 E12      -0.0310
     26 N40         2.2120   67.5128   65.1398 N.4         1 E12       0.2346
     27 C41         0.9097   67.9463   65.6942 C.3         1 E12      -0.0329
     28 C64         0.4364   61.3254   71.2851 C.3         1 E12      -0.0483
     29 C65        -0.2305   62.1024   72.4596 C.3         1 E12      -0.0529
     30 C66        -0.1213   63.6592   72.4682 C.3         1 E12      -0.0531
     31 C67        -0.1551   64.3418   71.0718 C.3         1 E12      -0.0531
     32 C68        -0.3155   65.8923   71.1231 C.3         1 E12      -0.0531
     33 C69        -0.0366   66.5941   69.7624 C.3         1 E12      -0.0531
     34 C70        -1.2093   66.5457   68.7402 C.3         1 E12      -0.0529
     35 C71        -0.9125   67.3241   67.4248 C.3         1 E12      -0.0483
     36 C72         0.3651   66.8662   66.6594 C.3         1 E12      -0.0126
     37 H1          5.4561   65.5360   65.9387 H           1 E12       0.2526
     38 H2          2.5719   62.1304   67.1591 H           1 E12       0.0600
     39 H3          5.7970   65.6835   70.5699 H           1 E12       0.0298
     40 H4          4.1227   65.7937   70.0176 H           1 E12       0.0298
     41 H5          4.5130   61.4365   70.3612 H           1 E12       0.2022
     42 H6          4.2784   61.1531   68.7570 H           1 E12       0.2022
     43 H7          2.8158   59.8171   69.8894 H           1 E12       0.0814
     44 H8          1.8931   61.0830   69.0996 H           1 E12       0.0814
     45 H9          2.7307   62.7483   64.9379 H           1 E12       0.0298
     46 H10         5.5008   66.3695   68.1325 H           1 E12       0.0511
     47 H11         6.5882   65.0007   68.3808 H           1 E12       0.0511
     48 H12         2.8140   63.4653   69.5898 H           1 E12       0.0913
     49 H13         5.7863   63.2362   70.2492 H           1 E12       0.0333
     50 H14         4.4540   63.7074   71.3127 H           1 E12       0.0333
     51 H15         2.3790   62.2223   71.6328 H           1 E12       0.0317
     52 H16         2.3124   60.5200   72.0443 H           1 E12       0.0317
     53 H17         4.7105   68.3830   60.2747 H           1 E12       0.2526
     54 H18         0.8958   68.5025   62.8956 H           1 E12       0.0600
     55 H19         0.7017   68.3528   60.5933 H           1 E12       0.0298
     56 H20         6.0107   69.2665   62.0361 H           1 E12       0.0511
     57 H21         5.9007   67.5994   62.6061 H           1 E12       0.0511
     58 H22         2.7246   69.5432   64.7196 H           1 E12       0.0913
     59 H23         4.7757   67.3164   65.0352 H           1 E12       0.0333
     60 H24         4.5495   68.7584   66.0294 H           1 E12       0.0333
     61 H25         5.3363   70.1796   64.1510 H           1 E12       0.0298
     62 H26         6.5411   68.9368   64.5180 H           1 E12       0.0298
     63 H27         2.0375   66.7314   64.5004 H           1 E12       0.2022
     64 H28         2.7536   67.1402   65.9276 H           1 E12       0.2022
     65 H29         1.0414   68.8773   66.2532 H           1 E12       0.0814
     66 H30         0.1894   68.1197   64.8890 H           1 E12       0.0814
     67 H31         0.0471   60.2992   71.2913 H           1 E12       0.0267
     68 H32         0.0968   61.7897   70.3546 H           1 E12       0.0267
     69 H33         0.1841   61.7256   73.4045 H           1 E12       0.0265
     70 H34        -1.2943   61.8480   72.4593 H           1 E12       0.0265
     71 H35         0.8044   63.9507   72.9760 H           1 E12       0.0265
     72 H36        -0.9492   64.0496   73.0650 H           1 E12       0.0265
     73 H37        -0.9720   63.9244   70.4761 H           1 E12       0.0265
     74 H38         0.7906   64.1085   70.5677 H           1 E12       0.0265
     75 H39         0.4012   66.2943   71.8490 H           1 E12       0.0265
     76 H40        -1.3196   66.1539   71.4722 H           1 E12       0.0265
     77 H41         0.8600   66.1457   69.3209 H           1 E12       0.0265
     78 H42         0.1958   67.6413   69.9611 H           1 E12       0.0265
     79 H43        -2.0960   66.9914   69.2029 H           1 E12       0.0265
     80 H44        -1.4553   65.5055   68.5017 H           1 E12       0.0265
     81 H45        -0.8361   68.3892   67.6753 H           1 E12       0.0267
     82 H46        -1.7728   67.2187   66.7585 H           1 E12       0.0267
     83 H47         0.1342   65.9566   66.0926 H           1 E12       0.0317
     84 H48         1.1583   66.6205   67.3764 H           1 E12       0.0317
@<TRIPOS>BOND
     1     1     9   1
     2     1     3   2
     3     1     2  am
     4     2    15   1
     5    15    10   1
     6    15     4   2
     7     4    11   1
     8     4     5   1
     9     5     9   2
    10    11     7   1
    11    11    12   1
    12    12     6   1
    13     6    10   1
    14     7     8   1
    15     8    13   1
    16    13    28   1
    17    28    29   1
    18    29    30   1
    19    30    31   1
    20    31    32   1
    21    32    33   1
    22    33    34   1
    23    34    35   1
    24    35    36   1
    25    36    27   1
    26    27    26   1
    27    26    23   1
    28    23    24   1
    29    23    18   1
    30    18    19   1
    31    18    17   2
    32    17    22   1
    33    17    16   1
    34    16    14  am
    35    14    20   1
    36    14    21   2
    37    20    19   2
    38    22    25   1
    39    25    24   1
    40     2    37   1
    41     5    38   1
    42     6    39   1
    43     6    40   1
    44     7    41   1
    45     7    42   1
    46     8    43   1
    47     8    44   1
    48     9    45   1
    49    10    46   1
    50    10    47   1
    51    11    48   1
    52    12    49   1
    53    12    50   1
    54    13    51   1
    55    13    52   1
    56    16    53   1
    57    19    54   1
    58    20    55   1
    59    22    56   1
    60    22    57   1
    61    23    58   1
    62    24    59   1
    63    24    60   1
    64    25    61   1
    65    25    62   1
    66    26    63   1
    67    26    64   1
    68    27    65   1
    69    27    66   1
    70    28    67   1
    71    28    68   1
    72    29    69   1
    73    29    70   1
    74    30    71   1
    75    30    72   1
    76    31    73   1
    77    31    74   1
    78    32    75   1
    79    32    76   1
    80    33    77   1
    81    33    78   1
    82    34    79   1
    83    34    80   1
    84    35    81   1
    85    35    82   1
    86    36    83   1
    87    36    84   1
@<TRIPOS>SUBSTRUCTURE
     1  E12      1

