@<TRIPOS>MOLECULE
1h23_ligand_033
    84    87
SMALL
GAST_HUCK
****
This file was generated by PARSER (from files_GN.cpp)

@<TRIPOS>ATOM
      1 C1         -0.7375   59.7215   72.9076 C.2         1 E12       0.1811
      2 N2         -0.1879   58.5130   73.0296 N.am        1 E12      -0.2230
      3 O7         -1.8103   59.9488   73.4440 O.2         1 E12      -0.4310
      4 C4          1.6839   59.1349   71.7574 C.2         1 E12       0.0225
      5 C5          1.0708   60.3657   71.5801 C.2         1 E12      -0.0779
      6 C14         2.6296   56.4077   71.6921 C.3         1 E12      -0.0310
      7 N17         3.9667   59.9775   71.4048 N.4         1 E12       0.2346
      8 C24         4.3333   60.8151   70.2364 C.3         1 E12      -0.0329
      9 C6         -0.1114   60.6661   72.1554 C.2         1 E12      -0.0278
     10 C9          1.4492   56.8095   72.6138 C.3         1 E12       0.0189
     11 C10         3.0077   58.8579   71.1559 C.3         1 E12      -0.0032
     12 C13         3.6749   57.5417   71.6576 C.3         1 E12      -0.0041
     13 C63         4.4789   62.3145   70.6334 C.3         1 E12      -0.0126
     14 C29         2.4232   69.0498   65.7193 C.2         1 E12       0.1811
     15 C3          0.9909   58.1855   72.4497 C.2         1 E12       0.0883
     16 N30         1.7842   68.9352   64.5552 N.am        1 E12      -0.2230
     17 C31         2.4241   68.9853   63.3652 C.2         1 E12       0.0883
     18 C32         3.7779   69.1506   63.3402 C.2         1 E12       0.0225
     19 C33         4.4203   69.3767   64.5456 C.2         1 E12      -0.0779
     20 C34         3.7646   69.2879   65.7224 C.2         1 E12      -0.0278
     21 O35         1.7920   68.9687   66.7631 O.2         1 E12      -0.4310
     22 C36         1.6075   68.8553   62.1655 C.3         1 E12       0.0189
     23 C37         4.5786   68.9939   62.1128 C.3         1 E12      -0.0032
     24 C38         3.7467   69.0063   60.7908 C.3         1 E12      -0.0041
     25 C39         2.3760   68.3057   60.9412 C.3         1 E12      -0.0310
     26 N40         5.5486   67.8558   62.1944 N.4         1 E12       0.2346
     27 C41         5.1318   66.4422   62.3949 C.3         1 E12      -0.0329
     28 C64         3.4199   63.2272   69.9511 C.3         1 E12      -0.0483
     29 C65         3.5819   64.7404   70.2675 C.3         1 E12      -0.0529
     30 C66         4.9949   65.3491   70.0116 C.3         1 E12      -0.0531
     31 C67         5.6491   65.0950   68.6176 C.3         1 E12      -0.0531
     32 C68         5.2175   66.0625   67.4751 C.3         1 E12      -0.0531
     33 C69         3.8975   65.7128   66.7225 C.3         1 E12      -0.0531
     34 C70         3.9378   64.5232   65.7171 C.3         1 E12      -0.0529
     35 C71         4.6535   64.7613   64.3533 C.3         1 E12      -0.0483
     36 C72         4.3967   66.1613   63.7319 C.3         1 E12      -0.0126
     37 H1         -0.6601   57.8371   73.5428 H           1 E12       0.2526
     38 H2          1.4978   61.0628   71.0178 H           1 E12       0.0600
     39 H3          3.0859   55.4826   72.0533 H           1 E12       0.0298
     40 H4          2.2626   56.2295   70.6771 H           1 E12       0.0298
     41 H5          4.8320   59.6014   71.8001 H           1 E12       0.2022
     42 H6          3.5526   60.5780   72.1211 H           1 E12       0.2022
     43 H7          3.5919   60.7101   69.4364 H           1 E12       0.0814
     44 H8          5.2828   60.4446   69.8361 H           1 E12       0.0814
     45 H9         -0.5235   61.5607   72.0175 H           1 E12       0.0298
     46 H10         0.6196   56.1272   72.4095 H           1 E12       0.0511
     47 H11         1.7472   56.6756   73.6564 H           1 E12       0.0511
     48 H12         2.8399   58.7241   70.0819 H           1 E12       0.0913
     49 H13         4.0878   57.6806   72.6617 H           1 E12       0.0333
     50 H14         4.4979   57.2635   70.9910 H           1 E12       0.0333
     51 H15         5.4861   62.6406   70.3597 H           1 E12       0.0317
     52 H16         4.3763   62.4396   71.7198 H           1 E12       0.0317
     53 H17         0.8241   68.7989   64.5678 H           1 E12       0.2526
     54 H18         5.3953   69.5737   64.5624 H           1 E12       0.0600
     55 H19         4.2522   69.4253   66.5781 H           1 E12       0.0298
     56 H20         1.2036   69.8427   61.9269 H           1 E12       0.0511
     57 H21         0.7611   68.1881   62.3576 H           1 E12       0.0511
     58 H22         5.2134   69.8868   62.0469 H           1 E12       0.0913
     59 H23         4.3060   68.5362   59.9803 H           1 E12       0.0333
     60 H24         3.5615   70.0453   60.4966 H           1 E12       0.0333
     61 H25         1.7799   68.4611   60.0373 H           1 E12       0.0298
     62 H26         2.5196   67.2317   61.0608 H           1 E12       0.0298
     63 H27         6.0868   67.8686   61.3268 H           1 E12       0.2022
     64 H28         6.2020   68.0807   62.9489 H           1 E12       0.2022
     65 H29         4.5331   66.0972   61.5526 H           1 E12       0.0814
     66 H30         6.0557   65.8645   62.3764 H           1 E12       0.0814
     67 H31         2.4257   62.9194   70.2962 H           1 E12       0.0267
     68 H32         3.4484   63.0708   68.8679 H           1 E12       0.0267
     69 H33         3.3301   64.9022   71.3228 H           1 E12       0.0265
     70 H34         2.8422   65.3031   69.6857 H           1 E12       0.0265
     71 H35         5.6749   64.9571   70.7757 H           1 E12       0.0265
     72 H36         4.9323   66.4307   70.1784 H           1 E12       0.0265
     73 H37         5.4872   64.0579   68.3174 H           1 E12       0.0265
     74 H38         6.7322   65.2102   68.7577 H           1 E12       0.0265
     75 H39         6.0350   66.1142   66.7508 H           1 E12       0.0265
     76 H40         5.1160   67.0675   67.8985 H           1 E12       0.0265
     77 H41         3.5789   66.6023   66.1766 H           1 E12       0.0265
     78 H42         3.1085   65.5025   67.4418 H           1 E12       0.0265
     79 H43         2.9006   64.2430   65.5024 H           1 E12       0.0265
     80 H44         4.4056   63.6638   66.2009 H           1 E12       0.0265
     81 H45         4.3185   63.9953   63.6438 H           1 E12       0.0267
     82 H46         5.7346   64.6312   64.4861 H           1 E12       0.0267
     83 H47         4.7384   66.8952   64.4578 H           1 E12       0.0317
     84 H48         3.3220   66.2943   63.5783 H           1 E12       0.0317
@<TRIPOS>BOND
     1     1     9   1
     2     1     3   2
     3     1     2  am
     4     2    15   1
     5    15    10   1
     6    15     4   2
     7     4    11   1
     8     4     5   1
     9     5     9   2
    10    11     7   1
    11    11    12   1
    12    12     6   1
    13     6    10   1
    14     7     8   1
    15     8    13   1
    16    13    28   1
    17    28    29   1
    18    29    30   1
    19    30    31   1
    20    31    32   1
    21    32    33   1
    22    33    34   1
    23    34    35   1
    24    35    36   1
    25    36    27   1
    26    27    26   1
    27    26    23   1
    28    23    24   1
    29    23    18   1
    30    18    19   1
    31    18    17   2
    32    17    22   1
    33    17    16   1
    34    16    14  am
    35    14    20   1
    36    14    21   2
    37    20    19   2
    38    22    25   1
    39    25    24   1
    40     2    37   1
    41     5    38   1
    42     6    39   1
    43     6    40   1
    44     7    41   1
    45     7    42   1
    46     8    43   1
    47     8    44   1
    48     9    45   1
    49    10    46   1
    50    10    47   1
    51    11    48   1
    52    12    49   1
    53    12    50   1
    54    13    51   1
    55    13    52   1
    56    16    53   1
    57    19    54   1
    58    20    55   1
    59    22    56   1
    60    22    57   1
    61    23    58   1
    62    24    59   1
    63    24    60   1
    64    25    61   1
    65    25    62   1
    66    26    63   1
    67    26    64   1
    68    27    65   1
    69    27    66   1
    70    28    67   1
    71    28    68   1
    72    29    69   1
    73    29    70   1
    74    30    71   1
    75    30    72   1
    76    31    73   1
    77    31    74   1
    78    32    75   1
    79    32    76   1
    80    33    77   1
    81    33    78   1
    82    34    79   1
    83    34    80   1
    84    35    81   1
    85    35    82   1
    86    36    83   1
    87    36    84   1
@<TRIPOS>SUBSTRUCTURE
     1  E12      1

