@<TRIPOS>MOLECULE
1h23_ligand_036
    84    87
SMALL
GAST_HUCK
****
This file was generated by PARSER (from files_GN.cpp)

@<TRIPOS>ATOM
      1 C1          0.8830   57.7756   72.6540 C.2         1 E12       0.1811
      2 N2         -0.1685   58.3896   73.1905 N.am        1 E12      -0.2230
      3 O7          1.0605   56.5851   72.8676 O.2         1 E12      -0.4310
      4 C4          0.4264   60.4526   72.2448 C.2         1 E12       0.0225
      5 C5          1.5291   59.8087   71.7018 C.2         1 E12      -0.0779
      6 C14        -1.5807   61.8002   73.8428 C.3         1 E12      -0.0310
      7 N17         0.4855   62.3814   70.6636 N.4         1 E12       0.2346
      8 C24         1.7091   63.1725   70.3664 C.3         1 E12      -0.0329
      9 C6          1.7520   58.4912   71.8912 C.2         1 E12      -0.0278
     10 C9         -1.5508   60.2556   73.7553 C.3         1 E12       0.0189
     11 C10         0.2527   61.9132   72.0696 C.3         1 E12      -0.0032
     12 C13        -1.1651   62.4161   72.4902 C.3         1 E12      -0.0041
     13 C63         1.8442   64.4987   71.1770 C.3         1 E12      -0.0126
     14 C29         2.3557   69.0258   65.7857 C.2         1 E12       0.1811
     15 C3         -0.4016   59.7141   73.0378 C.2         1 E12       0.0883
     16 N30         1.7301   68.8896   64.6198 N.am        1 E12      -0.2230
     17 C31         2.3804   68.9170   63.4340 C.2         1 E12       0.0883
     18 C32         3.7314   69.0928   63.4172 C.2         1 E12       0.0225
     19 C33         4.3651   69.3227   64.6294 C.2         1 E12      -0.0779
     20 C34         3.6962   69.2632   65.7992 C.2         1 E12      -0.0278
     21 O35         1.7128   68.9733   66.8266 O.2         1 E12      -0.4310
     22 C36         1.5703   68.8117   62.2285 C.3         1 E12       0.0189
     23 C37         4.5310   68.9931   62.1820 C.3         1 E12      -0.0032
     24 C38         3.7048   68.9965   60.8584 C.3         1 E12      -0.0041
     25 C39         2.3402   68.2801   61.0004 C.3         1 E12      -0.0310
     26 N40         5.5624   67.9066   62.2140 N.4         1 E12       0.2346
     27 C41         5.2124   66.4750   62.3909 C.3         1 E12      -0.0329
     28 C64         2.1248   65.7887   70.3526 C.3         1 E12      -0.0483
     29 C65         3.6014   66.1229   70.0036 C.3         1 E12      -0.0529
     30 C66         4.5242   64.9098   69.6746 C.3         1 E12      -0.0531
     31 C67         5.6619   65.1920   68.6488 C.3         1 E12      -0.0531
     32 C68         5.2724   65.9318   67.3281 C.3         1 E12      -0.0531
     33 C69         3.9201   65.5354   66.6539 C.3         1 E12      -0.0531
     34 C70         3.9760   64.3846   65.5973 C.3         1 E12      -0.0529
     35 C71         4.7105   64.6849   64.2492 C.3         1 E12      -0.0483
     36 C72         4.5839   66.1533   63.7662 C.3         1 E12      -0.0126
     37 H1         -0.7731   57.8678   73.7400 H           1 E12       0.2526
     38 H2          2.1775   60.3131   71.1440 H           1 E12       0.0600
     39 H3         -2.5861   62.1323   74.1052 H           1 E12       0.0298
     40 H4         -0.8913   62.1386   74.6219 H           1 E12       0.0298
     41 H5         -0.3100   62.9566   70.3770 H           1 E12       0.2022
     42 H6          0.4987   61.5560   70.0538 H           1 E12       0.2022
     43 H7          1.6605   63.3928   69.2972 H           1 E12       0.0814
     44 H8          2.5924   62.5459   70.5311 H           1 E12       0.0814
     45 H9          2.5466   58.0599   71.4778 H           1 E12       0.0298
     46 H10        -1.5568   59.8622   74.7763 H           1 E12       0.0511
     47 H11        -2.4559   59.9041   73.2540 H           1 E12       0.0511
     48 H12         0.9778   62.3949   72.7373 H           1 E12       0.0913
     49 H13        -1.9019   62.1338   71.7295 H           1 E12       0.0333
     50 H14        -1.1612   63.5055   72.5758 H           1 E12       0.0333
     51 H15         2.6375   64.3766   71.9202 H           1 E12       0.0317
     52 H16         0.9155   64.6543   71.7303 H           1 E12       0.0317
     53 H17         0.7715   68.7495   64.6255 H           1 E12       0.2526
     54 H18         5.3404   69.5243   64.6517 H           1 E12       0.0600
     55 H19         4.1752   69.4256   66.6571 H           1 E12       0.0298
     56 H20         1.1800   69.8067   62.0022 H           1 E12       0.0511
     57 H21         0.7174   68.1497   62.4050 H           1 E12       0.0511
     58 H22         5.1268   69.9098   62.1427 H           1 E12       0.0913
     59 H23         4.2718   68.5388   60.0440 H           1 E12       0.0333
     60 H24         3.5088   70.0335   60.5709 H           1 E12       0.0333
     61 H25         1.7458   68.4392   60.0969 H           1 E12       0.0298
     62 H26         2.4969   67.2066   61.1081 H           1 E12       0.0298
     63 H27         6.0827   67.9563   61.3373 H           1 E12       0.2022
     64 H28         6.2230   68.1366   62.9598 H           1 E12       0.2022
     65 H29         4.5637   66.1284   61.5863 H           1 E12       0.0814
     66 H30         6.1461   65.9179   62.2989 H           1 E12       0.0814
     67 H31         1.7447   66.6416   70.9296 H           1 E12       0.0267
     68 H32         1.5390   65.7578   69.4304 H           1 E12       0.0267
     69 H33         4.0438   66.6890   70.8267 H           1 E12       0.0265
     70 H34         3.5664   66.8020   69.1489 H           1 E12       0.0265
     71 H35         3.9437   64.0783   69.2881 H           1 E12       0.0265
     72 H36         4.9836   64.5641   70.6127 H           1 E12       0.0265
     73 H37         6.1103   64.2313   68.3790 H           1 E12       0.0265
     74 H38         6.4476   65.7701   69.1539 H           1 E12       0.0265
     75 H39         6.0999   65.7979   66.6189 H           1 E12       0.0265
     76 H40         5.2361   67.0047   67.5503 H           1 E12       0.0265
     77 H41         3.5159   66.4211   66.1616 H           1 E12       0.0265
     78 H42         3.1939   65.2580   67.4233 H           1 E12       0.0265
     79 H43         2.9352   64.1340   65.3543 H           1 E12       0.0265
     80 H44         4.4252   63.4917   66.0566 H           1 E12       0.0265
     81 H45         4.2885   64.0213   63.4798 H           1 E12       0.0267
     82 H46         5.7752   64.4354   64.3567 H           1 E12       0.0267
     83 H47         5.0811   66.7692   64.5119 H           1 E12       0.0317
     84 H48         3.5254   66.4197   63.7421 H           1 E12       0.0317
@<TRIPOS>BOND
     1     1     9   1
     2     1     3   2
     3     1     2  am
     4     2    15   1
     5    15    10   1
     6    15     4   2
     7     4    11   1
     8     4     5   1
     9     5     9   2
    10    11     7   1
    11    11    12   1
    12    12     6   1
    13     6    10   1
    14     7     8   1
    15     8    13   1
    16    13    28   1
    17    28    29   1
    18    29    30   1
    19    30    31   1
    20    31    32   1
    21    32    33   1
    22    33    34   1
    23    34    35   1
    24    35    36   1
    25    36    27   1
    26    27    26   1
    27    26    23   1
    28    23    24   1
    29    23    18   1
    30    18    19   1
    31    18    17   2
    32    17    22   1
    33    17    16   1
    34    16    14  am
    35    14    20   1
    36    14    21   2
    37    20    19   2
    38    22    25   1
    39    25    24   1
    40     2    37   1
    41     5    38   1
    42     6    39   1
    43     6    40   1
    44     7    41   1
    45     7    42   1
    46     8    43   1
    47     8    44   1
    48     9    45   1
    49    10    46   1
    50    10    47   1
    51    11    48   1
    52    12    49   1
    53    12    50   1
    54    13    51   1
    55    13    52   1
    56    16    53   1
    57    19    54   1
    58    20    55   1
    59    22    56   1
    60    22    57   1
    61    23    58   1
    62    24    59   1
    63    24    60   1
    64    25    61   1
    65    25    62   1
    66    26    63   1
    67    26    64   1
    68    27    65   1
    69    27    66   1
    70    28    67   1
    71    28    68   1
    72    29    69   1
    73    29    70   1
    74    30    71   1
    75    30    72   1
    76    31    73   1
    77    31    74   1
    78    32    75   1
    79    32    76   1
    80    33    77   1
    81    33    78   1
    82    34    79   1
    83    34    80   1
    84    35    81   1
    85    35    82   1
    86    36    83   1
    87    36    84   1
@<TRIPOS>SUBSTRUCTURE
     1  E12      1

