@<TRIPOS>MOLECULE
1h23_ligand_063
    84    87
SMALL
GAST_HUCK
****
This file was generated by PARSER (from files_GN.cpp)

@<TRIPOS>ATOM
      1 C1          2.5111   68.4400   60.7707 C.2         1 E12       0.1811
      2 N2          3.7962   68.1702   60.9934 N.am        1 E12      -0.2230
      3 O7          2.0637   68.3288   59.6394 O.2         1 E12      -0.4310
      4 C4          3.5762   68.5879   63.2947 C.2         1 E12       0.0225
      5 C5          2.2607   68.9436   63.0406 C.2         1 E12      -0.0779
      6 C14         6.4396   68.5655   63.5960 C.3         1 E12      -0.0310
      7 N17         3.2604   67.8145   65.5954 N.4         1 E12       0.2346
      8 C24         3.5098   67.9925   67.0472 C.3         1 E12      -0.0329
      9 C6          1.7250   68.8554   61.8049 C.2         1 E12      -0.0278
     10 C9          5.7871   68.0195   62.3056 C.3         1 E12       0.0189
     11 C10         4.1009   68.6396   64.6743 C.3         1 E12      -0.0032
     12 C13         5.5849   68.1683   64.8171 C.3         1 E12      -0.0041
     13 C63         2.7480   66.9444   67.8963 C.3         1 E12      -0.0126
     14 C29        -0.9837   65.5604   75.2837 C.2         1 E12       0.1811
     15 C3          4.3546   68.2671   62.2211 C.2         1 E12       0.0883
     16 N30        -0.9219   66.0886   74.0625 N.am        1 E12      -0.2230
     17 C31        -0.4462   65.4068   72.9937 C.2         1 E12       0.0883
     18 C32         0.0350   64.1378   73.1594 C.2         1 E12       0.0225
     19 C33        -0.0365   63.5951   74.4353 C.2         1 E12      -0.0779
     20 C34        -0.5412   64.2853   75.4802 C.2         1 E12      -0.0278
     21 O35        -1.4129   66.2367   76.2104 O.2         1 E12      -0.4310
     22 C36        -0.3982   66.1362   71.7276 C.3         1 E12       0.0189
     23 C37         0.7497   63.4160   72.0815 C.3         1 E12      -0.0032
     24 C38         1.0976   64.3224   70.8542 C.3         1 E12      -0.0041
     25 C39        -0.0714   65.2610   70.4927 C.3         1 E12      -0.0310
     26 N40         0.0339   62.2157   71.5534 N.4         1 E12       0.2346
     27 C41         0.1052   60.9073   72.2515 C.3         1 E12      -0.0329
     28 C64         3.4862   65.5908   68.0993 C.3         1 E12      -0.0483
     29 C65         4.8367   65.6791   68.8719 C.3         1 E12      -0.0529
     30 C66         5.3395   64.3110   69.4354 C.3         1 E12      -0.0531
     31 C67         5.0374   64.0917   70.9457 C.3         1 E12      -0.0531
     32 C68         5.4890   62.6991   71.4955 C.3         1 E12      -0.0531
     33 C69         4.3621   61.7698   72.0259 C.3         1 E12      -0.0531
     34 C70         3.3871   61.2325   70.9364 C.3         1 E12      -0.0529
     35 C71         2.4745   60.0603   71.4003 C.3         1 E12      -0.0483
     36 C72         1.5095   60.3275   72.5975 C.3         1 E12      -0.0126
     37 H1          4.3634   67.9144   60.2456 H           1 E12       0.2526
     38 H2          1.6899   69.2947   63.7758 H           1 E12       0.0600
     39 H3          7.4467   68.1552   63.6971 H           1 E12       0.0298
     40 H4          6.5162   69.6559   63.5425 H           1 E12       0.0298
     41 H5          3.4018   66.8314   65.3552 H           1 E12       0.2022
     42 H6          2.2738   68.0272   65.4335 H           1 E12       0.2022
     43 H7          3.1654   68.9921   67.3330 H           1 E12       0.0814
     44 H8          4.5741   67.9233   67.2755 H           1 E12       0.0814
     45 H9          0.7794   69.1212   61.6481 H           1 E12       0.0298
     46 H10         6.2911   68.4993   61.4638 H           1 E12       0.0511
     47 H11         5.9579   66.9415   62.2345 H           1 E12       0.0511
     48 H12         4.0504   69.6926   64.9793 H           1 E12       0.0913
     49 H13         5.6295   67.0792   64.9221 H           1 E12       0.0333
     50 H14         6.0338   68.6045   65.7080 H           1 E12       0.0333
     51 H15         1.7848   66.7479   67.4163 H           1 E12       0.0317
     52 H16         2.5393   67.3782   68.8771 H           1 E12       0.0317
     53 H17        -1.2052   67.0108   73.9319 H           1 E12       0.2526
     54 H18         0.3137   62.6803   74.6085 H           1 E12       0.0600
     55 H19        -0.5710   63.8766   76.3873 H           1 E12       0.0298
     56 H20         0.3717   66.9104   71.8177 H           1 E12       0.0511
     57 H21        -1.3591   66.6329   71.5536 H           1 E12       0.0511
     58 H22         1.7191   63.0985   72.4858 H           1 E12       0.0913
     59 H23         1.3592   63.7212   69.9793 H           1 E12       0.0333
     60 H24         1.9636   64.9451   71.1019 H           1 E12       0.0333
     61 H25         0.2093   65.9036   69.6497 H           1 E12       0.0298
     62 H26        -0.9446   64.6674   70.1966 H           1 E12       0.0298
     63 H27        -0.9580   62.4623   71.4637 H           1 E12       0.2022
     64 H28         0.3858   62.0428   70.6071 H           1 E12       0.2022
     65 H29        -0.4842   60.9728   73.1679 H           1 E12       0.0814
     66 H30        -0.4045   60.1896   71.6030 H           1 E12       0.0814
     67 H31         3.6613   65.1200   67.1280 H           1 E12       0.0267
     68 H32         2.8095   64.9374   68.6519 H           1 E12       0.0267
     69 H33         4.7497   66.3968   69.6926 H           1 E12       0.0265
     70 H34         5.5944   66.0711   68.1871 H           1 E12       0.0265
     71 H35         6.4231   64.2619   69.3033 H           1 E12       0.0265
     72 H36         4.9000   63.4911   68.8613 H           1 E12       0.0265
     73 H37         3.9715   64.2374   71.1198 H           1 E12       0.0265
     74 H38         5.5596   64.8733   71.5052 H           1 E12       0.0265
     75 H39         6.1704   62.8776   72.3317 H           1 E12       0.0265
     76 H40         6.0579   62.1500   70.7395 H           1 E12       0.0265
     77 H41         3.8042   62.3143   72.7933 H           1 E12       0.0265
     78 H42         4.8414   60.9163   72.5137 H           1 E12       0.0265
     79 H43         3.9849   60.8746   70.0915 H           1 E12       0.0265
     80 H44         2.7652   62.0451   70.5604 H           1 E12       0.0265
     81 H45         3.1342   59.2286   71.6712 H           1 E12       0.0267
     82 H46         1.8881   59.7240   70.5394 H           1 E12       0.0267
     83 H47         1.9965   60.9549   73.3510 H           1 E12       0.0317
     84 H48         1.3223   59.3543   73.0747 H           1 E12       0.0317
@<TRIPOS>BOND
     1     1     9   1
     2     1     3   2
     3     1     2  am
     4     2    15   1
     5    15    10   1
     6    15     4   2
     7     4    11   1
     8     4     5   1
     9     5     9   2
    10    11     7   1
    11    11    12   1
    12    12     6   1
    13     6    10   1
    14     7     8   1
    15     8    13   1
    16    13    28   1
    17    28    29   1
    18    29    30   1
    19    30    31   1
    20    31    32   1
    21    32    33   1
    22    33    34   1
    23    34    35   1
    24    35    36   1
    25    36    27   1
    26    27    26   1
    27    26    23   1
    28    23    24   1
    29    23    18   1
    30    18    19   1
    31    18    17   2
    32    17    22   1
    33    17    16   1
    34    16    14  am
    35    14    20   1
    36    14    21   2
    37    20    19   2
    38    22    25   1
    39    25    24   1
    40     2    37   1
    41     5    38   1
    42     6    39   1
    43     6    40   1
    44     7    41   1
    45     7    42   1
    46     8    43   1
    47     8    44   1
    48     9    45   1
    49    10    46   1
    50    10    47   1
    51    11    48   1
    52    12    49   1
    53    12    50   1
    54    13    51   1
    55    13    52   1
    56    16    53   1
    57    19    54   1
    58    20    55   1
    59    22    56   1
    60    22    57   1
    61    23    58   1
    62    24    59   1
    63    24    60   1
    64    25    61   1
    65    25    62   1
    66    26    63   1
    67    26    64   1
    68    27    65   1
    69    27    66   1
    70    28    67   1
    71    28    68   1
    72    29    69   1
    73    29    70   1
    74    30    71   1
    75    30    72   1
    76    31    73   1
    77    31    74   1
    78    32    75   1
    79    32    76   1
    80    33    77   1
    81    33    78   1
    82    34    79   1
    83    34    80   1
    84    35    81   1
    85    35    82   1
    86    36    83   1
    87    36    84   1
@<TRIPOS>SUBSTRUCTURE
     1  E12      1

