@<TRIPOS>MOLECULE
1h23_ligand_001
    84    87
SMALL
GAST_HUCK
****
This file was generated by PARSER (from files_GN.cpp)

@<TRIPOS>ATOM
      1 C1          2.4354   69.0839   65.7534 C.2         1 E12       0.1811
      2 N2          1.7932   68.8852   64.6046 N.am        1 E12      -0.2230
      3 O7          1.8131   69.0247   66.8073 O.2         1 E12      -0.4310
      4 C4          3.7740   69.0838   63.3737 C.2         1 E12       0.0225
      5 C5          4.4152   69.3997   64.5563 C.2         1 E12      -0.0779
      6 C14         2.3709   68.2681   60.9466 C.3         1 E12      -0.0310
      7 N17         5.5355   67.8074   62.1845 N.4         1 E12       0.2346
      8 C24         5.1203   66.3794   62.0870 C.3         1 E12      -0.0329
      9 C6          3.7634   69.3913   65.7361 C.2         1 E12      -0.0278
     10 C9          1.6011   68.6745   62.2270 C.3         1 E12       0.0189
     11 C10         4.5612   68.9463   62.1389 C.3         1 E12      -0.0032
     12 C13         3.7120   69.0304   60.8313 C.3         1 E12      -0.0041
     13 C63         4.2326   65.7471   63.2037 C.3         1 E12      -0.0126
     14 C29         3.9365   57.5428   70.8224 C.2         1 E12       0.1811
     15 C3          2.4290   68.8627   63.4120 C.2         1 E12       0.0883
     16 N30         3.8890   57.8843   72.1068 N.am        1 E12      -0.2230
     17 C31         3.3413   59.0432   72.5343 C.2         1 E12       0.0883
     18 C32         2.7395   59.8738   71.6352 C.2         1 E12       0.0225
     19 C33         2.8439   59.5408   70.2937 C.2         1 E12      -0.0779
     20 C34         3.4124   58.3866   69.8923 C.2         1 E12      -0.0278
     21 O35         4.4788   56.4936   70.5075 O.2         1 E12      -0.4310
     22 C36         3.4254   59.3234   73.9610 C.3         1 E12       0.0189
     23 C37         2.1097   61.1602   72.0233 C.3         1 E12      -0.0032
     24 C38         1.9653   61.3493   73.5721 C.3         1 E12      -0.0041
     25 C39         3.2013   60.8109   74.3241 C.3         1 E12      -0.0310
     26 N40         0.7717   61.3121   71.3600 N.4         1 E12       0.2346
     27 C41        -0.0741   62.5104   71.6208 C.3         1 E12      -0.0329
     28 C64         4.9695   65.1804   64.4538 C.3         1 E12      -0.0483
     29 C65         5.3698   66.2476   65.5095 C.3         1 E12      -0.0529
     30 C66         5.4719   65.7228   66.9724 C.3         1 E12      -0.0531
     31 C67         4.4558   66.3834   67.9442 C.3         1 E12      -0.0531
     32 C68         4.3235   65.6225   69.2890 C.3         1 E12      -0.0531
     33 C69         3.2978   66.2434   70.2799 C.3         1 E12      -0.0531
     34 C70         1.8404   65.7070   70.1887 C.3         1 E12      -0.0529
     35 C71         1.6758   64.2429   70.6918 C.3         1 E12      -0.0483
     36 C72         0.2004   63.7576   70.7322 C.3         1 E12      -0.0126
     37 H1          0.8379   68.7132   64.6269 H           1 E12       0.2526
     38 H2          5.3802   69.6289   64.5539 H           1 E12       0.0600
     39 H3          2.5566   67.1897   60.9608 H           1 E12       0.0298
     40 H4          1.7528   68.4802   60.0661 H           1 E12       0.0298
     41 H5          6.1123   67.9147   63.0243 H           1 E12       0.2022
     42 H6          6.1422   67.9403   61.3645 H           1 E12       0.2022
     43 H7          6.0455   65.8000   62.0278 H           1 E12       0.0814
     44 H8          4.6156   66.2496   61.1247 H           1 E12       0.0814
     45 H9          4.2371   69.6297   66.5757 H           1 E12       0.0298
     46 H10         1.0596   69.6098   62.0341 H           1 E12       0.0511
     47 H11         0.8573   67.8965   62.4270 H           1 E12       0.0511
     48 H12         5.2043   69.8366   62.0953 H           1 E12       0.0913
     49 H13         4.2822   68.6564   59.9788 H           1 E12       0.0333
     50 H14         3.4759   70.0831   60.6323 H           1 E12       0.0333
     51 H15         3.7100   64.8997   62.7473 H           1 E12       0.0317
     52 H16         3.4732   66.4598   63.5238 H           1 E12       0.0317
     53 H17         4.3022   57.2957   72.7577 H           1 E12       0.2526
     54 H18         2.5030   60.1577   69.5907 H           1 E12       0.0600
     55 H19         3.4645   58.1698   68.9224 H           1 E12       0.0298
     56 H20         4.4154   59.0402   74.3296 H           1 E12       0.0511
     57 H21         2.6868   58.7045   74.4819 H           1 E12       0.0511
     58 H22         2.7714   61.9511   71.6588 H           1 E12       0.0913
     59 H23         1.0727   60.8251   73.9358 H           1 E12       0.0333
     60 H24         1.8556   62.4130   73.8120 H           1 E12       0.0333
     61 H25         4.0822   61.3976   74.0429 H           1 E12       0.0298
     62 H26         3.0561   60.9119   75.4039 H           1 E12       0.0298
     63 H27         0.9052   61.2790   70.3466 H           1 E12       0.2022
     64 H28         0.2120   60.4928   71.6156 H           1 E12       0.2022
     65 H29        -1.1041   62.2048   71.4155 H           1 E12       0.0814
     66 H30        -0.0382   62.7990   72.6705 H           1 E12       0.0814
     67 H31         5.8691   64.6441   64.1311 H           1 E12       0.0267
     68 H32         4.2937   64.4546   64.9225 H           1 E12       0.0267
     69 H33         4.6327   67.0442   65.4897 H           1 E12       0.0265
     70 H34         6.3345   66.6797   65.2177 H           1 E12       0.0265
     71 H35         6.4780   65.9344   67.3436 H           1 E12       0.0265
     72 H36         5.3360   64.6407   66.9897 H           1 E12       0.0265
     73 H37         3.4754   66.4381   67.4617 H           1 E12       0.0265
     74 H38         4.7919   67.4069   68.1443 H           1 E12       0.0265
     75 H39         5.2986   65.6203   69.7831 H           1 E12       0.0265
     76 H40         4.0627   64.5813   69.0860 H           1 E12       0.0265
     77 H41         3.2844   67.3262   70.1331 H           1 E12       0.0265
     78 H42         3.6649   66.0732   71.2916 H           1 E12       0.0265
     79 H43         1.4740   65.7920   69.1632 H           1 E12       0.0265
     80 H44         1.2089   66.3498   70.8122 H           1 E12       0.0265
     81 H45         2.1042   64.1783   71.6962 H           1 E12       0.0267
     82 H46         2.2441   63.5768   70.0392 H           1 E12       0.0267
     83 H47        -0.1331   63.5468   69.7114 H           1 E12       0.0317
     84 H48        -0.4266   64.5701   71.1154 H           1 E12       0.0317
@<TRIPOS>BOND
     1     1     9   1
     2     1     3   2
     3     1     2  am
     4     2    15   1
     5    15    10   1
     6    15     4   2
     7     4    11   1
     8     4     5   1
     9     5     9   2
    10    11     7   1
    11    11    12   1
    12    12     6   1
    13     6    10   1
    14     7     8   1
    15     8    13   1
    16    13    28   1
    17    28    29   1
    18    29    30   1
    19    30    31   1
    20    31    32   1
    21    32    33   1
    22    33    34   1
    23    34    35   1
    24    35    36   1
    25    36    27   1
    26    27    26   1
    27    26    23   1
    28    23    24   1
    29    23    18   1
    30    18    19   1
    31    18    17   2
    32    17    22   1
    33    17    16   1
    34    16    14  am
    35    14    20   1
    36    14    21   2
    37    20    19   2
    38    22    25   1
    39    25    24   1
    40     2    37   1
    41     5    38   1
    42     6    39   1
    43     6    40   1
    44     7    41   1
    45     7    42   1
    46     8    43   1
    47     8    44   1
    48     9    45   1
    49    10    46   1
    50    10    47   1
    51    11    48   1
    52    12    49   1
    53    12    50   1
    54    13    51   1
    55    13    52   1
    56    16    53   1
    57    19    54   1
    58    20    55   1
    59    22    56   1
    60    22    57   1
    61    23    58   1
    62    24    59   1
    63    24    60   1
    64    25    61   1
    65    25    62   1
    66    26    63   1
    67    26    64   1
    68    27    65   1
    69    27    66   1
    70    28    67   1
    71    28    68   1
    72    29    69   1
    73    29    70   1
    74    30    71   1
    75    30    72   1
    76    31    73   1
    77    31    74   1
    78    32    75   1
    79    32    76   1
    80    33    77   1
    81    33    78   1
    82    34    79   1
    83    34    80   1
    84    35    81   1
    85    35    82   1
    86    36    83   1
    87    36    84   1
@<TRIPOS>SUBSTRUCTURE
     1  E12      1

