@<TRIPOS>MOLECULE
1h23_ligand_015
    84    87
SMALL
GAST_HUCK
****
This file was generated by PARSER (from files_GN.cpp)

@<TRIPOS>ATOM
      1 C1          2.5821   68.4759   60.7444 C.2         1 E12       0.1811
      2 N2          3.8609   68.2503   61.0391 N.am        1 E12      -0.2230
      3 O7          2.1949   68.3160   59.5984 O.2         1 E12      -0.4310
      4 C4          3.4731   68.5409   63.3357 C.2         1 E12       0.0225
      5 C5          2.1782   68.9088   63.0052 C.2         1 E12      -0.0779
      6 C14         6.2837   68.4263   63.8835 C.3         1 E12      -0.0310
      7 N17         2.8381   67.6010   65.4818 N.4         1 E12       0.2346
      8 C24         3.0236   67.0060   66.8301 C.3         1 E12      -0.0329
      9 C6          1.7264   68.8558   61.7356 C.2         1 E12      -0.0278
     10 C9          5.7626   68.0769   62.4680 C.3         1 E12       0.0189
     11 C10         3.8709   68.4171   64.7596 C.3         1 E12      -0.0032
     12 C13         5.3228   67.8636   64.9520 C.3         1 E12      -0.0041
     13 C63         3.6187   67.9154   67.9444 C.3         1 E12      -0.0126
     14 C29        -1.1232   58.7310   74.9107 C.2         1 E12       0.1811
     15 C3          4.3332   68.3100   62.3006 C.2         1 E12       0.0883
     16 N30        -0.5653   57.6453   75.4445 N.am        1 E12      -0.2230
     17 C31         0.3769   56.9165   74.7980 C.2         1 E12       0.0883
     18 C32         0.7407   57.2745   73.5351 C.2         1 E12       0.0225
     19 C33         0.1919   58.4317   73.0082 C.2         1 E12      -0.0779
     20 C34        -0.7338   59.1444   73.6736 C.2         1 E12      -0.0278
     21 O35        -1.9785   59.3344   75.5392 O.2         1 E12      -0.4310
     22 C36         0.9078   55.7442   75.4889 C.3         1 E12       0.0189
     23 C37         1.6990   56.4990   72.7248 C.3         1 E12      -0.0032
     24 C38         2.0162   55.0854   73.3074 C.3         1 E12      -0.0041
     25 C39         2.1805   55.1372   74.8412 C.3         1 E12      -0.0310
     26 N40         2.9417   57.3174   72.5387 N.4         1 E12       0.2346
     27 C41         3.3406   57.6580   71.1439 C.3         1 E12      -0.0329
     28 C64         3.0641   67.6732   69.3828 C.3         1 E12      -0.0483
     29 C65         3.6893   66.5108   70.2115 C.3         1 E12      -0.0529
     30 C66         3.7497   65.1282   69.5000 C.3         1 E12      -0.0531
     31 C67         3.8647   63.8855   70.4315 C.3         1 E12      -0.0531
     32 C68         5.2968   63.5184   70.9167 C.3         1 E12      -0.0531
     33 C69         5.3002   62.2991   71.8924 C.3         1 E12      -0.0531
     34 C70         5.6459   60.9135   71.2634 C.3         1 E12      -0.0529
     35 C71         4.8773   59.6845   71.8573 C.3         1 E12      -0.0483
     36 C72         3.7310   59.1504   70.9432 C.3         1 E12      -0.0126
     37 H1          4.4754   68.0160   60.3236 H           1 E12       0.2526
     38 H2          1.5523   69.2246   63.7097 H           1 E12       0.0600
     39 H3          7.2839   68.0081   64.0264 H           1 E12       0.0298
     40 H4          6.3461   69.5158   63.9947 H           1 E12       0.0298
     41 H5          2.6110   66.8164   64.8703 H           1 E12       0.2022
     42 H6          2.0003   68.1866   65.5436 H           1 E12       0.2022
     43 H7          3.6337   66.1056   66.7343 H           1 E12       0.0814
     44 H8          2.0230   66.6833   67.1380 H           1 E12       0.0814
     45 H9          0.7941   69.1220   61.5217 H           1 E12       0.0298
     46 H10         6.3112   68.6925   61.7510 H           1 E12       0.0511
     47 H11         5.9801   67.0300   62.2496 H           1 E12       0.0511
     48 H12         3.8476   69.4248   65.1944 H           1 E12       0.0913
     49 H13         5.3161   66.7714   64.8729 H           1 E12       0.0333
     50 H14         5.6997   68.1356   65.9402 H           1 E12       0.0333
     51 H15         3.4006   68.9540   67.6818 H           1 E12       0.0317
     52 H16         4.7055   67.8067   67.9637 H           1 E12       0.0317
     53 H17        -0.8473   57.3646   76.3286 H           1 E12       0.2526
     54 H18         0.4961   58.7661   72.1236 H           1 E12       0.0600
     55 H19        -1.1154   59.9684   73.2683 H           1 E12       0.0298
     56 H20         0.1214   54.9846   75.5158 H           1 E12       0.0511
     57 H21         1.1501   56.0098   76.5205 H           1 E12       0.0511
     58 H22         1.2208   56.2988   71.7580 H           1 E12       0.0913
     59 H23         2.9168   54.6691   72.8438 H           1 E12       0.0333
     60 H24         1.1902   54.4015   73.0780 H           1 E12       0.0333
     61 H25         2.3492   54.1310   75.2343 H           1 E12       0.0298
     62 H26         3.0521   55.7491   75.0888 H           1 E12       0.0298
     63 H27         2.8146   58.2005   73.0396 H           1 E12       0.2022
     64 H28         3.7277   56.8303   72.9784 H           1 E12       0.2022
     65 H29         4.1746   57.0166   70.8473 H           1 E12       0.0814
     66 H30         2.5217   57.4615   70.4475 H           1 E12       0.0814
     67 H31         1.9773   67.5388   69.3420 H           1 E12       0.0267
     68 H32         3.2348   68.5873   69.9560 H           1 E12       0.0267
     69 H33         3.0885   66.4048   71.1185 H           1 E12       0.0265
     70 H34         4.6984   66.7921   70.5233 H           1 E12       0.0265
     71 H35         4.5975   65.1138   68.8109 H           1 E12       0.0265
     72 H36         2.8356   64.9974   68.9126 H           1 E12       0.0265
     73 H37         3.4513   63.0209   69.9005 H           1 E12       0.0265
     74 H38         3.2324   64.0648   71.3062 H           1 E12       0.0265
     75 H39         5.7041   64.3807   71.4467 H           1 E12       0.0265
     76 H40         5.9481   63.3306   70.0592 H           1 E12       0.0265
     77 H41         4.3304   62.2427   72.3894 H           1 E12       0.0265
     78 H42         6.0308   62.5026   72.6782 H           1 E12       0.0265
     79 H43         6.7191   60.7384   71.4088 H           1 E12       0.0265
     80 H44         5.4836   60.9325   70.1828 H           1 E12       0.0265
     81 H45         4.4753   59.9400   72.8422 H           1 E12       0.0267
     82 H46         5.6022   58.8818   72.0114 H           1 E12       0.0267
     83 H47         4.0433   59.2520   69.8998 H           1 E12       0.0317
     84 H48         2.8434   59.7749   71.0766 H           1 E12       0.0317
@<TRIPOS>BOND
     1     1     9   1
     2     1     3   2
     3     1     2  am
     4     2    15   1
     5    15    10   1
     6    15     4   2
     7     4    11   1
     8     4     5   1
     9     5     9   2
    10    11     7   1
    11    11    12   1
    12    12     6   1
    13     6    10   1
    14     7     8   1
    15     8    13   1
    16    13    28   1
    17    28    29   1
    18    29    30   1
    19    30    31   1
    20    31    32   1
    21    32    33   1
    22    33    34   1
    23    34    35   1
    24    35    36   1
    25    36    27   1
    26    27    26   1
    27    26    23   1
    28    23    24   1
    29    23    18   1
    30    18    19   1
    31    18    17   2
    32    17    22   1
    33    17    16   1
    34    16    14  am
    35    14    20   1
    36    14    21   2
    37    20    19   2
    38    22    25   1
    39    25    24   1
    40     2    37   1
    41     5    38   1
    42     6    39   1
    43     6    40   1
    44     7    41   1
    45     7    42   1
    46     8    43   1
    47     8    44   1
    48     9    45   1
    49    10    46   1
    50    10    47   1
    51    11    48   1
    52    12    49   1
    53    12    50   1
    54    13    51   1
    55    13    52   1
    56    16    53   1
    57    19    54   1
    58    20    55   1
    59    22    56   1
    60    22    57   1
    61    23    58   1
    62    24    59   1
    63    24    60   1
    64    25    61   1
    65    25    62   1
    66    26    63   1
    67    26    64   1
    68    27    65   1
    69    27    66   1
    70    28    67   1
    71    28    68   1
    72    29    69   1
    73    29    70   1
    74    30    71   1
    75    30    72   1
    76    31    73   1
    77    31    74   1
    78    32    75   1
    79    32    76   1
    80    33    77   1
    81    33    78   1
    82    34    79   1
    83    34    80   1
    84    35    81   1
    85    35    82   1
    86    36    83   1
    87    36    84   1
@<TRIPOS>SUBSTRUCTURE
     1  E12      1

